@<TRIPOS>MOLECULE
ZRH
15 14 1 0 1
SMALL
USER_CHARGES
@<TRIPOS>ATOM
       1 C1           0.3900    -1.0210    -0.0850 c3            1 ZRH       -0.091800
       2 C2          -0.5800    -2.0240     0.5200 c3            1 ZRH       -0.079400
       3 C3          -1.9310    -1.9920    -0.1890 c3            1 ZRH       -0.085400
       4 C4          -2.9050    -2.9950     0.4140 c3            1 ZRH        0.132500
       5 O1          -4.1380    -2.9160    -0.2880 oh            1 ZRH       -0.602800
       6 H1           1.3560    -1.0500     0.4290 hc            1 ZRH        0.034600
       7 H2           0.5590    -1.2300    -1.1460 hc            1 ZRH        0.034600
       8 H3          -0.0100    -0.0060     0.0030 hc            1 ZRH        0.034600
       9 H4          -0.1470    -3.0290     0.4520 hc            1 ZRH        0.037800
      10 H5          -0.7120    -1.7990     1.5850 hc            1 ZRH        0.037800
      11 H6          -2.3650    -0.9870    -0.1340 hc            1 ZRH        0.054800
      12 H7          -1.8040    -2.2070    -1.2570 hc            1 ZRH        0.054800
      13 H8          -2.5190    -4.0160     0.3260 h1            1 ZRH        0.019900
      14 H9          -3.0900    -2.7740     1.4700 h1            1 ZRH        0.019900
      15 H10         -4.7340    -3.5650     0.1190 ho            1 ZRH        0.398100
@<TRIPOS>BOND
       1        1        2 1
       2        2        3 1
       3        3        4 1
       4        4        5 1
       5        1        6 1
       6        1        7 1
       7        1        8 1
       8        2        9 1
       9        2       10 1
      10        3       11 1
      11        3       12 1
      12        4       13 1
      13        4       14 1
      14        5       15 1
@<TRIPOS>SUBSTRUCTURE
       1 ZRH             1 RESIDUE    0 **** ROOT      0
