@<TRIPOS>MOLECULE
ZEM
11 10 1 0 1
SMALL
USER_CHARGES
@<TRIPOS>ATOM
       1 C1          -0.5530    -0.2790     0.9030 c3            1 ZEM       -0.092500
       2 C2           0.3850    -0.4430     2.0870 c3            1 ZEM       -0.081400
       3 C3           1.1310     0.8190     2.3890 c3            1 ZEM       -0.092300
       4 H1          -1.0900    -1.2100     0.6960 hc            1 ZEM        0.032200
       5 H2          -1.2980     0.5000     1.0970 hc            1 ZEM        0.032200
       6 H3           0.0090    -0.0000     0.0060 hc            1 ZEM        0.032200
       7 H4          -0.1910    -0.7420     2.9700 hc            1 ZEM        0.036500
       8 H5           1.1010    -1.2440     1.8770 hc            1 ZEM        0.036500
       9 H6           1.7960     0.6630     3.2470 hc            1 ZEM        0.032200
      10 H7           0.4380     1.6290     2.6400 hc            1 ZEM        0.032200
      11 H8           1.7440     1.1210     1.5340 hc            1 ZEM        0.032200
@<TRIPOS>BOND
       1        1        2 1
       2        2        3 1
       3        1        4 1
       4        1        5 1
       5        1        6 1
       6        2        7 1
       7        2        8 1
       8        3        9 1
       9        3       10 1
      10        3       11 1
@<TRIPOS>SUBSTRUCTURE
       1 ZEM             1 RESIDUE    0 **** ROOT      0
