@<TRIPOS>MOLECULE
ZXQ
9 8 1 0 1
SMALL
USER_CHARGES
@<TRIPOS>ATOM
       1 C1           1.0620    -0.2680    -0.0010 c3            1 ZXQ       -0.096700
       2 C2           1.9100     0.9130    -0.4220 c3            1 ZXQ        0.129700
       3 O1           1.5170     1.3240    -1.7230 oh            1 ZXQ       -0.599500
       4 H1           1.3390    -0.6110     1.0000 hc            1 ZXQ        0.044800
       5 H2          -0.0000    -0.0000    -0.0010 hc            1 ZXQ        0.044800
       6 H3           1.1800    -1.0990    -0.7040 hc            1 ZXQ        0.044800
       7 H4           2.9680     0.6360    -0.4450 h1            1 ZXQ        0.017100
       8 H5           1.7730     1.7500     0.2690 h1            1 ZXQ        0.017100
       9 H6           2.0790     2.0790    -1.9610 ho            1 ZXQ        0.397900
@<TRIPOS>BOND
       1        1        2 1
       2        2        3 1
       3        1        4 1
       4        1        5 1
       5        1        6 1
       6        2        7 1
       7        2        8 1
       8        3        9 1
@<TRIPOS>SUBSTRUCTURE
       1 ZXQ             1 RESIDUE    0 **** ROOT      0
