@<TRIPOS>MOLECULE
HOH
3 2 1 0 0
SMALL
USER_CHARGES
@<TRIPOS>ATOM
       1 O           4.1330    4.6480    8.4360 O.t3p     1 HOH     -0.834000
       2 H1          3.7930    5.1250    9.1930 H.t3p     1 HOH      0.417000
       3 H2          3.3710    4.1940    8.0770 H.t3p     1 HOH      0.417000
@<TRIPOS>BOND
       1    1    2 1
       2    1    3 1
@<TRIPOS>SUBSTRUCTURE
       1 HOH         1 TEMP              0 ****  ****    0 ROOT
