@<TRIPOS>MOLECULE
ZZU
3 2 1 0 1
SMALL
USER_CHARGES
@<TRIPOS>ATOM
       1 O1          -0.2950    -0.2180     0.1540 oh            1 ZZU       -0.785000
       2 H1          -0.0170     0.6750     0.4080 ho            1 ZZU        0.392500
       3 H2           0.3120    -0.4570    -0.5630 ho            1 ZZU        0.392500
@<TRIPOS>BOND
       1        1        2 1
       2        1        3 1
@<TRIPOS>SUBSTRUCTURE
       1 ZZU             1 RESIDUE    0 **** ROOT      0
