@<TRIPOS>MOLECULE
*****
   18    18     0     0     0
SMALL
NO_CHARGES

@<TRIPOS>ATOM
      1 C1         -0.8669    0.5776   -1.0448 C.3       1 <0>         0.0000
      2 C2         -1.3841    0.3492    0.3729 C.3       1 <0>         0.0000
      3 C3         -0.2545    0.3955    1.3984 C.3       1 <0>         0.0000
      4 C4          0.8667   -0.5779    1.0447 C.3       1 <0>         0.0000
      5 C5          1.3842   -0.3490   -0.3729 C.3       1 <0>         0.0000
      6 C6          0.2547   -0.3955   -1.3983 C.3       1 <0>         0.0000
      7 H1         -0.4982    1.6068   -1.1365 H         1 <0>         0.0000
      8 H2         -1.6896    0.4671   -1.7603 H         1 <0>         0.0000
      9 H3         -2.1360    1.1077    0.6185 H         1 <0>         0.0000
     10 H4         -1.8840   -0.6259    0.4256 H         1 <0>         0.0000
     11 H5          0.1498    1.4141    1.4491 H         1 <0>         0.0000
     12 H6         -0.6490    0.1579    2.3928 H         1 <0>         0.0000
     13 H7          1.6899   -0.4683    1.7597 H         1 <0>         0.0000
     14 H8          0.4982   -1.6071    1.1363 H         1 <0>         0.0000
     15 H9          1.8840    0.6262   -0.4253 H         1 <0>         0.0000
     16 H10         2.1365   -1.1075   -0.6173 H         1 <0>         0.0000
     17 H11        -0.1496   -1.4141   -1.4491 H         1 <0>         0.0000
     18 H12         0.6489   -0.1579   -2.3928 H         1 <0>         0.0000
@<TRIPOS>BOND
     1    1    6 1
     2    1    2 1
     3    2    3 1
     4    3    4 1
     5    4    5 1
     6    5    6 1
     7    1    7 1
     8    1    8 1
     9    2    9 1
    10    2   10 1
    11    3   11 1
    12    3   12 1
    13    4   13 1
    14    4   14 1
    15    5   15 1
    16    5   16 1
    17    6   17 1
    18    6   18 1
