@<TRIPOS>MOLECULE
*****
   12    12     1     0     0
SMALL
NO_CHARGES

@<TRIPOS>ATOM
      1 C1          1.8854   -1.0363   -0.1240 CA        1 <0>        0.00000
      2 C2          0.7980   -0.4580    0.5550 CA        1 <0>        0.00000
      3 C3          2.9300   -1.6355    0.6025 CA        1 <0>        0.00000
      4 C4          0.7549   -0.4793    1.9606 CA        1 <0>        0.00000
      5 C5          2.8869   -1.6569    2.0081 CA        1 <0>        0.00000
      6 C6          1.7993   -1.0789    2.6872 CA        1 <0>        0.00000
      7 H1          1.9182   -1.0202   -1.2041 HA        1 <0>        0.00000
      8 H2         -0.0044    0.0028   -0.0033 HA        1 <0>        0.00000
      9 H3          3.7658   -2.0795    0.0809 HA        1 <0>        0.00000
     10 H4         -0.0808   -0.0351    2.4823 HA        1 <0>        0.00000
     11 H5          3.6894   -2.1175    2.5664 HA        1 <0>        0.00000
     12 H6          1.7662   -1.0954    3.7673 HA        1 <0>        0.00000
@<TRIPOS>BOND
     1    1    2 ar
     2    1    3 ar
     3    2    4 ar
     4    3    5 ar
     5    4    6 ar
     6    5    6 ar
     7    1    7 1
     8    2    8 1
     9    3    9 1
    10    4   10 1
    11    5   11 1
    12    6   12 1
@<TRIPOS>SUBSTRUCTURE
     1 <0>         1 GROUP 0 A     ****
