@<TRIPOS>MOLECULE
MiniDrugBank_20
   31    30     1     0     0
SMALL
NO_CHARGES

@<TRIPOS>ATOM
      1 Cl1         4.5080    2.2688    0.0000 Cl        1 <0>        0.00000
      2 S1          4.5080   -0.2063    0.0000 S.o2      1 <0>        0.00000
      3 S2          2.3645    0.2063    0.0000 S.o2      1 <0>        0.00000
      4 O1          4.9205    0.5082    0.0000 O.2       1 <0>        0.00000
      5 O2          4.0955   -0.9207    0.0000 O.2       1 <0>        0.00000
      6 O3          1.9520   -0.5082    0.0000 O.2       1 <0>        0.00000
      7 O4          2.7770    0.9207    0.0000 O.2       1 <0>        0.00000
      8 O5          3.7935   -1.4438    0.0000 O.2       1 <0>        0.00000
      9 N1          3.7935    0.2063    0.0000 N.pl3     1 <0>        0.00000
     10 N2          3.0791   -0.2063    0.0000 N.am      1 <0>        0.00000
     11 N3          2.3645   -1.4438    0.0000 N.am      1 <0>        0.00000
     12 C1          3.7935    1.0313    0.0000 C.3       1 <0>        0.00000
     13 C2          5.2224   -0.6188    0.0000 C.3       1 <0>        0.00000
     14 C3          4.5080    1.4438    0.0000 C.3       1 <0>        0.00000
     15 C4          3.0791   -1.0313    0.0000 C.2       1 <0>        0.00000
     16 C5          1.6500    0.6188    0.0000 C.3       1 <0>        0.00000
     17 C6          2.3645   -2.2688    0.0000 C.3       1 <0>        0.00000
     18 H1          2.3645   -1.4438    0.0000 H         1 <0>        0.00000
     19 H2          3.7935    1.0313    0.0000 H         1 <0>        0.00000
     20 H3          3.7935    1.0313    0.0000 H         1 <0>        0.00000
     21 H4          5.2224   -0.6188    0.0000 H         1 <0>        0.00000
     22 H5          5.2224   -0.6188    0.0000 H         1 <0>        0.00000
     23 H6          5.2224   -0.6188    0.0000 H         1 <0>        0.00000
     24 H7          4.5080    1.4438    0.0000 H         1 <0>        0.00000
     25 H8          4.5080    1.4438    0.0000 H         1 <0>        0.00000
     26 H9          1.6500    0.6188    0.0000 H         1 <0>        0.00000
     27 H10         1.6500    0.6188    0.0000 H         1 <0>        0.00000
     28 H11         1.6500    0.6188    0.0000 H         1 <0>        0.00000
     29 H12         2.3645   -2.2688    0.0000 H         1 <0>        0.00000
     30 H13         2.3645   -2.2688    0.0000 H         1 <0>        0.00000
     31 H14         2.3645   -2.2688    0.0000 H         1 <0>        0.00000
@<TRIPOS>BOND
     1    1   14 1
     2    2    4 2
     3    2    5 2
     4    2    9 1
     5    2   13 1
     6    3    6 2
     7    3    7 2
     8    3   10 1
     9    3   16 1
    10    8   15 2
    11    9   10 1
    12    9   12 1
    13   10   15 am
    14   11   15 am
    15   11   17 1
    16   12   14 1
    17   11   18 1
    18   12   19 1
    19   12   20 1
    20   13   21 1
    21   13   22 1
    22   13   23 1
    23   14   24 1
    24   14   25 1
    25   16   26 1
    26   16   27 1
    27   16   28 1
    28   17   29 1
    29   17   30 1
    30   17   31 1
@<TRIPOS>SUBSTRUCTURE
     1 <0>         1 GROUP 0 A     ****
