DrugBank_5354
 OpenBabel01151909533D

 44 45  0  0  1  0  0  0  0  0999 V2000
    1.8325   -2.6083    6.9051 C   0  0  0  0  0  0  0  0  0  0  0  0
    2.4804   -2.7387    5.6768 C   0  0  0  0  0  0  0  0  0  0  0  0
    1.5879   -1.3407    7.4335 C   0  0  0  0  0  0  0  0  0  0  0  0
    3.5187    1.3150    1.2216 C   0  0  0  0  0  0  0  0  0  0  0  0
    2.2695    0.9300    0.7351 C   0  0  0  0  0  0  0  0  0  0  0  0
    2.8838   -1.6016    4.9768 C   0  0  0  0  0  0  0  0  0  0  0  0
    1.9912   -0.2036    6.7335 C   0  0  0  0  0  0  0  0  0  0  0  0
    3.7779    1.2698    2.5915 C   0  0  0  0  0  0  0  0  0  0  0  0
    1.5384    0.4547    2.9883 C   0  0  0  0  0  0  0  0  0  0  0  0
    1.2793    0.4999    1.6184 C   0  0  0  0  0  0  0  0  0  0  0  0
    2.6392   -0.3340    5.5052 C   0  0  0  0  0  0  0  0  0  0  0  0
    2.7877    0.8397    3.4748 C   0  0  0  0  0  0  0  0  0  0  0  0
   -0.0716    0.0841    1.0921 C   0  0  0  0  0  0  0  0  0  0  0  0
   -0.1690   -1.4081    0.7460 C   0  0  0  0  0  0  0  0  0  0  0  0
   -1.5542   -1.8055    0.2232 C   0  0  0  0  0  0  0  0  0  0  0  0
   -1.7220   -3.2936   -0.1137 C   0  0  2  0  0  0  0  0  0  0  0  0
   -0.0324   -4.7546    1.5737 O   0  0  0  0  0  0  0  0  0  0  0  0
    0.6632   -4.0097   -0.9965 O   0  0  0  0  0  0  0  0  0  0  0  0
   -0.9370   -2.9514   -2.6389 O   0  0  0  0  0  0  0  0  0  0  0  0
   -2.3477   -5.7173    0.8129 O   0  0  0  0  0  0  0  0  0  0  0  0
   -2.3166   -3.8139    2.4606 O   0  0  0  0  0  0  0  0  0  0  0  0
   -1.3529   -5.2566   -1.7603 O   0  0  0  0  0  0  0  0  0  0  0  0
    3.0409    0.7951    4.8115 O   0  0  0  0  0  0  0  0  0  0  0  0
   -1.4584   -4.4334    1.2381 P   0  0  0  0  0  0  0  0  0  0  0  0
   -0.6830   -3.7958   -1.4903 S   0  0  0  0  0  0  0  0  0  0  0  0
    1.5178   -3.4934    7.4501 H   0  0  0  0  0  0  0  0  0  0  0  0
    2.6711   -3.7257    5.2653 H   0  0  0  0  0  0  0  0  0  0  0  0
    1.0831   -1.2400    8.3900 H   0  0  0  0  0  0  0  0  0  0  0  0
    4.2897    1.6494    0.5339 H   0  0  0  0  0  0  0  0  0  0  0  0
    2.0767    0.9689   -0.3338 H   0  0  0  0  0  0  0  0  0  0  0  0
    3.3893   -1.7101    4.0212 H   0  0  0  0  0  0  0  0  0  0  0  0
    1.7996    0.7812    7.1508 H   0  0  0  0  0  0  0  0  0  0  0  0
    4.7529    1.5710    2.9642 H   0  0  0  0  0  0  0  0  0  0  0  0
    0.7683    0.1201    3.6793 H   0  0  0  0  0  0  0  0  0  0  0  0
   -0.8572    0.3487    1.8110 H   0  0  0  0  0  0  0  0  0  0  0  0
   -0.2822    0.6749    0.1913 H   0  0  0  0  0  0  0  0  0  0  0  0
    0.5806   -1.6169   -0.0246 H   0  0  0  0  0  0  0  0  0  0  0  0
    0.0965   -2.0075    1.6225 H   0  0  0  0  0  0  0  0  0  0  0  0
   -1.7582   -1.2235   -0.6842 H   0  0  0  0  0  0  0  0  0  0  0  0
   -2.3201   -1.5196    0.9530 H   0  0  0  0  0  0  0  0  0  0  0  0
   -2.7529   -3.4164   -0.4700 H   0  0  0  0  0  0  0  0  0  0  0  0
   -2.4571   -6.4511    1.4545 H   0  0  0  0  0  0  0  0  0  0  0  0
   -2.4266   -4.3430    3.2791 H   0  0  0  0  0  0  0  0  0  0  0  0
   -2.3282   -5.2572   -1.9053 H   0  0  0  0  0  0  0  0  0  0  0  0
  1  2  2  0  0  0  0
  1  3  1  0  0  0  0
  1 26  1  0  0  0  0
  2  6  1  0  0  0  0
  2 27  1  0  0  0  0
  3  7  2  0  0  0  0
  3 28  1  0  0  0  0
  4  5  2  0  0  0  0
  4  8  1  0  0  0  0
  4 29  1  0  0  0  0
  5 10  1  0  0  0  0
  5 30  1  0  0  0  0
  6 11  2  0  0  0  0
  6 31  1  0  0  0  0
  7 11  1  0  0  0  0
  7 32  1  0  0  0  0
  8 12  2  0  0  0  0
  8 33  1  0  0  0  0
  9 10  2  0  0  0  0
  9 12  1  0  0  0  0
  9 34  1  0  0  0  0
 10 13  1  0  0  0  0
 11 23  1  0  0  0  0
 12 23  1  0  0  0  0
 13 14  1  0  0  0  0
 13 35  1  0  0  0  0
 13 36  1  0  0  0  0
 14 15  1  0  0  0  0
 14 37  1  0  0  0  0
 14 38  1  0  0  0  0
 15 16  1  0  0  0  0
 15 39  1  0  0  0  0
 15 40  1  0  0  0  0
 16 24  1  0  0  0  0
 16 25  1  0  0  0  0
 16 41  1  6  0  0  0
 17 24  2  0  0  0  0
 18 25  2  0  0  0  0
 19 25  2  0  0  0  0
 20 24  1  0  0  0  0
 20 42  1  0  0  0  0
 21 24  1  0  0  0  0
 21 43  1  0  0  0  0
 22 25  1  0  0  0  0
 22 44  1  0  0  0  0
M  END
$$$$
DrugBank_2791
 OpenBabel01151909533D

 19 19  0  0  0  0  0  0  0  0999 V2000
    1.8851   -1.0363   -0.1124 C   0  0  0  0  0  0  0  0  0  0  0  0
    2.8783   -1.6520    2.0022 C   0  0  0  0  0  0  0  0  0  0  0  0
    0.8066   -0.4630    0.5610 C   0  0  0  0  0  0  0  0  0  0  0  0
    1.7997   -1.0786    2.6757 C   0  0  0  0  0  0  0  0  0  0  0  0
    2.9210   -1.6309    0.6081 C   0  0  0  0  0  0  0  0  0  0  0  0
    0.7638   -0.4841    1.9551 C   0  0  0  0  0  0  0  0  0  0  0  0
    4.0740   -2.2446   -0.1116 C   0  0  0  0  0  0  0  0  0  0  0  0
   -0.1406    0.5892    4.1386 O   0  0  0  0  0  0  0  0  0  0  0  0
   -1.1494    1.2431    1.9139 O   0  0  0  0  0  0  0  0  0  0  0  0
   -1.6805   -0.9673    2.9614 O   0  0  0  0  0  0  0  0  0  0  0  0
   -0.5850    0.2354    2.7982 S   0  0  0  0  0  0  0  0  0  0  0  0
    1.9097   -1.0154   -1.1987 H   0  0  0  0  0  0  0  0  0  0  0  0
    3.6806   -2.1133    2.5719 H   0  0  0  0  0  0  0  0  0  0  0  0
    0.0045   -0.0029   -0.0100 H   0  0  0  0  0  0  0  0  0  0  0  0
    1.7763   -1.1011    3.7620 H   0  0  0  0  0  0  0  0  0  0  0  0
    4.8660   -1.5020   -0.2676 H   0  0  0  0  0  0  0  0  0  0  0  0
    4.4935   -3.0872    0.4532 H   0  0  0  0  0  0  0  0  0  0  0  0
    3.7689   -2.6386   -1.0899 H   0  0  0  0  0  0  0  0  0  0  0  0
   -1.4031   -1.7124    3.5447 H   0  0  0  0  0  0  0  0  0  0  0  0
  1  3  2  0  0  0  0
  1  5  1  0  0  0  0
  1 12  1  0  0  0  0
  2  4  1  0  0  0  0
  2  5  2  0  0  0  0
  2 13  1  0  0  0  0
  3  6  1  0  0  0  0
  3 14  1  0  0  0  0
  4  6  2  0  0  0  0
  4 15  1  0  0  0  0
  5  7  1  0  0  0  0
  6 11  1  0  0  0  0
  7 16  1  0  0  0  0
  7 17  1  0  0  0  0
  7 18  1  0  0  0  0
  8 11  2  0  0  0  0
  9 11  2  0  0  0  0
 10 11  1  0  0  0  0
 10 19  1  0  0  0  0
M  END
$$$$
DrugBank_5373
 OpenBabel01151909533D

 28 28  0  0  0  0  0  0  0  0999 V2000
   -3.3232   -1.2658    2.1675 C   0  0  0  0  0  0  0  0  0  0  0  0
   -0.9077   -1.3132    2.1564 C   0  0  0  0  0  0  0  0  0  0  0  0
   -3.3386   -2.2768    3.1284 C   0  0  0  0  0  0  0  0  0  0  0  0
   -0.9231   -2.3242    3.1173 C   0  0  0  0  0  0  0  0  0  0  0  0
   -2.1077   -0.7840    1.6815 C   0  0  0  0  0  0  0  0  0  0  0  0
   -2.1386   -2.8059    3.6033 C   0  0  0  0  0  0  0  0  0  0  0  0
   -2.7904    1.5881    1.1791 C   0  0  0  0  0  0  0  0  0  0  0  0
   -2.8345   -0.1461   -0.6448 C   0  0  0  0  0  0  0  0  0  0  0  0
   -0.6702    0.7541    0.1837 C   0  0  0  0  0  0  0  0  0  0  0  0
   -2.0904    0.3299    0.6216 C   0  0  0  0  0  0  0  0  0  0  0  0
   -0.8878   -4.0331    5.5184 O   0  0  0  0  0  0  0  0  0  0  0  0
   -3.4150   -3.9493    5.5292 O   0  0  0  0  0  0  0  0  0  0  0  0
   -2.1901   -5.4686    3.9618 O   0  0  0  0  0  0  0  0  0  0  0  0
   -2.1577   -4.0698    4.8076 S   0  0  0  0  0  0  0  0  0  0  0  0
   -4.2631   -0.8598    1.8032 H   0  0  0  0  0  0  0  0  0  0  0  0
    0.0441   -0.9444    1.7831 H   0  0  0  0  0  0  0  0  0  0  0  0
   -4.2911   -2.6453    3.5000 H   0  0  0  0  0  0  0  0  0  0  0  0
    0.0177   -2.7296    3.4801 H   0  0  0  0  0  0  0  0  0  0  0  0
   -2.7918    2.3992    0.4415 H   0  0  0  0  0  0  0  0  0  0  0  0
   -3.8355    1.3971    1.4464 H   0  0  0  0  0  0  0  0  0  0  0  0
   -2.2828    1.9560    2.0786 H   0  0  0  0  0  0  0  0  0  0  0  0
   -2.8475    0.6179   -1.4298 H   0  0  0  0  0  0  0  0  0  0  0  0
   -2.3580   -1.0362   -1.0722 H   0  0  0  0  0  0  0  0  0  0  0  0
   -3.8761   -0.4020   -0.4175 H   0  0  0  0  0  0  0  0  0  0  0  0
   -0.7103    1.5488   -0.5710 H   0  0  0  0  0  0  0  0  0  0  0  0
   -0.0863    1.1410    1.0272 H   0  0  0  0  0  0  0  0  0  0  0  0
   -0.1175   -0.0827   -0.2591 H   0  0  0  0  0  0  0  0  0  0  0  0
   -1.3816   -5.6569    3.4295 H   0  0  0  0  0  0  0  0  0  0  0  0
  1  3  2  0  0  0  0
  1  5  1  0  0  0  0
  1 15  1  0  0  0  0
  2  4  1  0  0  0  0
  2  5  2  0  0  0  0
  2 16  1  0  0  0  0
  3  6  1  0  0  0  0
  3 17  1  0  0  0  0
  4  6  2  0  0  0  0
  4 18  1  0  0  0  0
  5 10  1  0  0  0  0
  6 14  1  0  0  0  0
  7 10  1  0  0  0  0
  7 19  1  0  0  0  0
  7 20  1  0  0  0  0
  7 21  1  0  0  0  0
  8 10  1  0  0  0  0
  8 22  1  0  0  0  0
  8 23  1  0  0  0  0
  8 24  1  0  0  0  0
  9 10  1  0  0  0  0
  9 25  1  0  0  0  0
  9 26  1  0  0  0  0
  9 27  1  0  0  0  0
 11 14  2  0  0  0  0
 12 14  2  0  0  0  0
 13 14  1  0  0  0  0
 13 28  1  0  0  0  0
M  END
$$$$
DrugBank_2799
 OpenBabel01151909533D

 57 57  0  0  1  0  0  0  0  0999 V2000
    2.2720   -1.3769    0.8097 C   0  0  0  0  0  0  0  0  0  0  0  0
    3.6342   -2.4386   -0.8797 C   0  0  0  0  0  0  0  0  0  0  0  0
    3.2950   -0.4623    1.0598 C   0  0  0  0  0  0  0  0  0  0  0  0
    4.6572   -1.5240   -0.6296 C   0  0  0  0  0  0  0  0  0  0  0  0
    2.4416   -2.3651   -0.1600 C   0  0  0  0  0  0  0  0  0  0  0  0
    4.4876   -0.5358    0.3402 C   0  0  0  0  0  0  0  0  0  0  0  0
   -3.0122   -5.4166    5.1649 C   0  0  0  0  0  0  0  0  0  0  0  0
    0.6398   -5.0986    5.0269 C   0  0  0  0  0  0  0  0  0  0  0  0
    3.7685   -4.8857    4.1994 C   0  0  0  0  0  0  0  0  0  0  0  0
   -5.7644   -7.9039    7.7867 C   0  0  0  0  0  0  0  0  0  0  0  0
    1.3411   -3.3489   -0.4290 C   0  0  0  0  0  0  0  0  0  0  0  0
   -3.8072   -6.6469    5.5700 C   0  0  0  0  0  0  0  0  0  0  0  0
    2.9469   -4.2037    5.2501 C   0  0  0  0  0  0  0  0  0  0  0  0
   -5.2734   -6.3508    5.8907 C   0  0  0  0  0  0  0  0  0  0  0  0
   -0.7238   -4.5770    2.9282 C   0  0  0  0  0  0  0  0  0  0  0  0
   -0.7292   -4.7449    4.4497 C   0  0  1  0  0  0  0  0  0  0  0  0
   -6.0606   -7.5866    6.3344 C   0  0  2  0  0  0  0  0  0  0  0  0
    0.2713   -5.2744    0.4434 C   0  0  2  0  0  0  0  0  0  0  0  0
   -7.4853   -7.3944    6.2390 N   0  0  0  0  0  0  0  0  0  0  0  0
    1.5836   -4.1111    4.7826 N   0  0  0  0  0  0  0  0  0  0  0  0
   -1.6907   -5.7315    4.8839 N   0  0  0  0  0  0  0  0  0  0  0  0
    5.5292    0.3950    0.5951 N   0  0  0  0  0  0  0  0  0  0  0  0
    5.3564    1.2758    1.4719 O   0  0  0  0  0  0  0  0  0  0  0  0
   -3.5037   -4.2945    5.0794 O   0  0  0  0  0  0  0  0  0  0  0  0
    0.8553   -6.1347    5.6526 O   0  0  0  0  0  0  0  0  0  0  0  0
    3.3733   -5.2853    3.1144 O   0  0  0  0  0  0  0  0  0  0  0  0
   -6.3447   -7.4172    8.7486 O   0  0  0  0  0  0  0  0  0  0  0  0
    6.5940    0.3112   -0.0634 O   0  0  0  0  0  0  0  0  0  0  0  0
    5.0535   -5.0062    4.6224 O   0  0  0  0  0  0  0  0  0  0  0  0
   -4.7259   -8.7711    7.9142 O   0  0  0  0  0  0  0  0  0  0  0  0
    0.6677   -6.2726   -0.4937 O   0  0  0  0  0  0  0  0  0  0  0  0
    1.2991   -4.2986    0.6279 O   0  0  0  0  0  0  0  0  0  0  0  0
   -0.1765   -6.0639    2.0272 S   0  0  0  0  0  0  0  0  0  0  0  0
    1.3463   -1.3120    1.3753 H   0  0  0  0  0  0  0  0  0  0  0  0
    3.7754   -3.2050   -1.6372 H   0  0  0  0  0  0  0  0  0  0  0  0
    3.1499    0.3029    1.8185 H   0  0  0  0  0  0  0  0  0  0  0  0
    5.5818   -1.5924   -1.1976 H   0  0  0  0  0  0  0  0  0  0  0  0
    0.3713   -2.8439   -0.4940 H   0  0  0  0  0  0  0  0  0  0  0  0
    1.5119   -3.8725   -1.3758 H   0  0  0  0  0  0  0  0  0  0  0  0
   -3.3155   -7.1337    6.4198 H   0  0  0  0  0  0  0  0  0  0  0  0
   -3.7655   -7.3453    4.7250 H   0  0  0  0  0  0  0  0  0  0  0  0
    2.9671   -4.7916    6.1715 H   0  0  0  0  0  0  0  0  0  0  0  0
    3.3329   -3.1967    5.4284 H   0  0  0  0  0  0  0  0  0  0  0  0
   -5.7437   -5.9230    4.9952 H   0  0  0  0  0  0  0  0  0  0  0  0
   -5.3310   -5.5757    6.6656 H   0  0  0  0  0  0  0  0  0  0  0  0
   -1.7257   -4.3247    2.5658 H   0  0  0  0  0  0  0  0  0  0  0  0
   -0.0543   -3.7575    2.6457 H   0  0  0  0  0  0  0  0  0  0  0  0
   -1.0475   -3.8001    4.9077 H   0  0  0  0  0  0  0  0  0  0  0  0
   -5.8328   -8.4641    5.7210 H   0  0  0  0  0  0  0  0  0  0  0  0
   -0.6307   -4.7941    0.0482 H   0  0  0  0  0  0  0  0  0  0  0  0
   -8.0916   -7.9272    6.8400 H   0  0  0  0  0  0  0  0  0  0  0  0
   -7.8590   -6.8948    5.4494 H   0  0  0  0  0  0  0  0  0  0  0  0
    1.3297   -3.3055    4.2185 H   0  0  0  0  0  0  0  0  0  0  0  0
   -1.3867   -6.6952    4.9877 H   0  0  0  0  0  0  0  0  0  0  0  0
    5.1805   -4.6276    5.5184 H   0  0  0  0  0  0  0  0  0  0  0  0
   -4.3432   -9.0925    7.0700 H   0  0  0  0  0  0  0  0  0  0  0  0
    1.4650   -6.6915   -0.1284 H   0  0  0  0  0  0  0  0  0  0  0  0
  1  3  2  0  0  0  0
  1  5  1  0  0  0  0
  1 34  1  0  0  0  0
  2  4  1  0  0  0  0
  2  5  2  0  0  0  0
  2 35  1  0  0  0  0
  3  6  1  0  0  0  0
  3 36  1  0  0  0  0
  4  6  2  0  0  0  0
  4 37  1  0  0  0  0
  5 11  1  0  0  0  0
  6 22  1  0  0  0  0
  7 12  1  0  0  0  0
  7 21  1  0  0  0  0
  7 24  2  0  0  0  0
  8 16  1  0  0  0  0
  8 20  1  0  0  0  0
  8 25  2  0  0  0  0
  9 13  1  0  0  0  0
  9 26  2  0  0  0  0
  9 29  1  0  0  0  0
 10 17  1  0  0  0  0
 10 27  2  0  0  0  0
 10 30  1  0  0  0  0
 11 32  1  0  0  0  0
 11 38  1  0  0  0  0
 11 39  1  0  0  0  0
 12 14  1  0  0  0  0
 12 40  1  0  0  0  0
 12 41  1  0  0  0  0
 13 20  1  0  0  0  0
 13 42  1  0  0  0  0
 13 43  1  0  0  0  0
 14 17  1  0  0  0  0
 14 44  1  0  0  0  0
 14 45  1  0  0  0  0
 15 16  1  0  0  0  0
 15 33  1  0  0  0  0
 15 46  1  0  0  0  0
 15 47  1  0  0  0  0
 16 21  1  0  0  0  0
 16 48  1  1  0  0  0
 17 19  1  0  0  0  0
 17 49  1  6  0  0  0
 18 31  1  0  0  0  0
 18 32  1  0  0  0  0
 18 33  1  0  0  0  0
 18 50  1  6  0  0  0
 19 51  1  0  0  0  0
 19 52  1  0  0  0  0
 20 53  1  0  0  0  0
 21 54  1  0  0  0  0
 22 23  1  0  0  0  0
 22 28  2  0  0  0  0
 29 55  1  0  0  0  0
 30 56  1  0  0  0  0
 31 57  1  0  0  0  0
M  END
$$$$
DrugBank_2800
 OpenBabel01151909533D

 28 29  0  0  0  0  0  0  0  0999 V2000
    8.3076   -0.8096    1.7397 C   0  0  0  0  0  0  0  0  0  0  0  0
    8.6605    0.3990    2.3298 C   0  0  0  0  0  0  0  0  0  0  0  0
    6.9727   -1.0859    1.4300 C   0  0  0  0  0  0  0  0  0  0  0  0
    7.6923    1.3619    2.6257 C   0  0  0  0  0  0  0  0  0  0  0  0
    5.9745   -0.1302    1.7185 C   0  0  0  0  0  0  0  0  0  0  0  0
    6.3535    1.0777    2.3120 C   0  0  0  0  0  0  0  0  0  0  0  0
    3.9875    0.8170    1.8655 C   0  0  0  0  0  0  0  0  0  0  0  0
    0.3739   -0.8208    0.6252 C   0  0  0  0  0  0  0  0  0  0  0  0
    1.8610   -0.6305    0.9190 C   0  0  0  0  0  0  0  0  0  0  0  0
   -0.5098   -0.7669    1.8649 C   0  0  0  0  0  0  0  0  0  0  0  0
    4.6164   -0.2647    1.4692 N   0  0  0  0  0  0  0  0  0  0  0  0
   -2.3462   -2.3296    0.8305 O   0  0  0  0  0  0  0  0  0  0  0  0
   -2.7206    0.1759    0.8177 O   0  0  0  0  0  0  0  0  0  0  0  0
   -2.7864   -1.1032    2.9735 O   0  0  0  0  0  0  0  0  0  0  0  0
    4.9514    2.0517    2.5528 S   0  0  0  0  0  0  0  0  0  0  0  0
    2.2371    0.9717    1.6893 S   0  0  0  0  0  0  0  0  0  0  0  0
   -2.2071   -1.0250    1.4508 S   0  0  0  0  0  0  0  0  0  0  0  0
    9.0750   -1.5458    1.5163 H   0  0  0  0  0  0  0  0  0  0  0  0
    9.7028    0.5985    2.5645 H   0  0  0  0  0  0  0  0  0  0  0  0
    6.7096   -2.0329    0.9671 H   0  0  0  0  0  0  0  0  0  0  0  0
    7.9759    2.3033    3.0865 H   0  0  0  0  0  0  0  0  0  0  0  0
    0.2478   -1.8013    0.1476 H   0  0  0  0  0  0  0  0  0  0  0  0
    0.0328   -0.0831   -0.1123 H   0  0  0  0  0  0  0  0  0  0  0  0
    2.4221   -0.6826   -0.0195 H   0  0  0  0  0  0  0  0  0  0  0  0
    2.2311   -1.4292    1.5697 H   0  0  0  0  0  0  0  0  0  0  0  0
   -0.2377   -1.5473    2.5818 H   0  0  0  0  0  0  0  0  0  0  0  0
   -0.4610    0.2051    2.3626 H   0  0  0  0  0  0  0  0  0  0  0  0
   -2.4965   -1.8873    3.4966 H   0  0  0  0  0  0  0  0  0  0  0  0
  1  2  2  0  0  0  0
  1  3  1  0  0  0  0
  1 18  1  0  0  0  0
  2  4  1  0  0  0  0
  2 19  1  0  0  0  0
  3  5  2  0  0  0  0
  3 20  1  0  0  0  0
  4  6  2  0  0  0  0
  4 21  1  0  0  0  0
  5  6  1  0  0  0  0
  5 11  1  0  0  0  0
  6 15  1  0  0  0  0
  7 11  2  0  0  0  0
  7 15  1  0  0  0  0
  7 16  1  0  0  0  0
  8  9  1  0  0  0  0
  8 10  1  0  0  0  0
  8 22  1  0  0  0  0
  8 23  1  0  0  0  0
  9 16  1  0  0  0  0
  9 24  1  0  0  0  0
  9 25  1  0  0  0  0
 10 17  1  0  0  0  0
 10 26  1  0  0  0  0
 10 27  1  0  0  0  0
 12 17  2  0  0  0  0
 13 17  2  0  0  0  0
 14 17  1  0  0  0  0
 14 28  1  0  0  0  0
M  END
$$$$
DrugBank_5387
 OpenBabel01151909533D

 56 57  0  0  1  0  0  0  0  0999 V2000
   -3.1443    1.8637   -2.8377 C   0  0  0  0  0  0  0  0  0  0  0  0
   -2.7081   -0.2914   -3.8389 C   0  0  0  0  0  0  0  0  0  0  0  0
   -5.5500    1.9546   -4.4716 C   0  0  0  0  0  0  0  0  0  0  0  0
   -5.5700   -0.4576   -4.3373 C   0  0  0  0  0  0  0  0  0  0  0  0
   -1.8515    1.8822   -2.3142 C   0  0  0  0  0  0  0  0  0  0  0  0
   -1.4153   -0.2729   -3.3155 C   0  0  0  0  0  0  0  0  0  0  0  0
   -6.8428    1.9362   -4.9951 C   0  0  0  0  0  0  0  0  0  0  0  0
   -6.8628   -0.4760   -4.8607 C   0  0  0  0  0  0  0  0  0  0  0  0
   -3.5726    0.7769   -3.6000 C   0  0  0  0  0  0  0  0  0  0  0  0
   -4.9136    0.7577   -4.1427 C   0  0  0  0  0  0  0  0  0  0  0  0
   -0.9871    0.8139   -2.5531 C   0  0  0  0  0  0  0  0  0  0  0  0
   -7.4992    0.7209   -5.1896 C   0  0  0  0  0  0  0  0  0  0  0  0
    1.2322    1.9942   -2.5759 C   0  0  0  0  0  0  0  0  0  0  0  0
   -8.9350   -0.0184   -7.1158 C   0  0  0  0  0  0  0  0  0  0  0  0
    0.0187    0.5651    2.6332 C   0  0  0  0  0  0  0  0  0  0  0  0
  -11.7672   -0.8801   -2.4588 C   0  0  0  0  0  0  0  0  0  0  0  0
    0.3827    0.8603   -0.4407 C   0  0  0  0  0  0  0  0  0  0  0  0
   -9.8971    0.0949   -4.7435 C   0  0  0  0  0  0  0  0  0  0  0  0
    0.4230    0.8339   -1.9819 C   0  0  1  0  0  0  0  0  0  0  0  0
   -8.8813    0.7011   -5.7495 C   0  0  1  0  0  0  0  0  0  0  0  0
   -0.3400   -0.2815    0.1123 N   0  0  0  0  0  0  0  0  0  0  0  0
   -9.9319    0.7990   -3.4649 N   0  0  0  0  0  0  0  0  0  0  0  0
   -1.6153   -1.3999    2.0680 O   0  0  0  0  0  0  0  0  0  0  0  0
   -2.2312    0.9426    1.3679 O   0  0  0  0  0  0  0  0  0  0  0  0
  -10.5180    0.8505   -0.9439 O   0  0  0  0  0  0  0  0  0  0  0  0
   -9.2348   -1.1093   -1.8761 O   0  0  0  0  0  0  0  0  0  0  0  0
   -1.2368   -0.0954    1.5610 S   0  0  0  0  0  0  0  0  0  0  0  0
  -10.2418   -0.0762   -2.0241 S   0  0  0  0  0  0  0  0  0  0  0  0
   -3.8066    2.7037   -2.6421 H   0  0  0  0  0  0  0  0  0  0  0  0
   -3.0271   -1.1454   -4.4317 H   0  0  0  0  0  0  0  0  0  0  0  0
   -5.0514    2.9100   -4.3264 H   0  0  0  0  0  0  0  0  0  0  0  0
   -5.0874   -1.3989   -4.0852 H   0  0  0  0  0  0  0  0  0  0  0  0
   -1.5267    2.7325   -1.7205 H   0  0  0  0  0  0  0  0  0  0  0  0
   -0.7482   -1.1093   -3.5070 H   0  0  0  0  0  0  0  0  0  0  0  0
   -7.3305    2.8734   -5.2495 H   0  0  0  0  0  0  0  0  0  0  0  0
   -7.3670   -1.4275   -5.0085 H   0  0  0  0  0  0  0  0  0  0  0  0
    0.7899    2.9604   -2.3127 H   0  0  0  0  0  0  0  0  0  0  0  0
    1.2834    1.9371   -3.6686 H   0  0  0  0  0  0  0  0  0  0  0  0
    2.2593    1.9910   -2.1934 H   0  0  0  0  0  0  0  0  0  0  0  0
   -8.6230   -1.0653   -7.0449 H   0  0  0  0  0  0  0  0  0  0  0  0
   -8.2901    0.4731   -7.8524 H   0  0  0  0  0  0  0  0  0  0  0  0
   -9.9578   -0.0092   -7.5096 H   0  0  0  0  0  0  0  0  0  0  0  0
   -0.4231    0.7367    3.6160 H   0  0  0  0  0  0  0  0  0  0  0  0
    0.8307   -0.1605    2.7004 H   0  0  0  0  0  0  0  0  0  0  0  0
    0.3776    1.5027    2.2062 H   0  0  0  0  0  0  0  0  0  0  0  0
  -12.0900   -1.4873   -1.6116 H   0  0  0  0  0  0  0  0  0  0  0  0
  -12.5091   -0.1124   -2.6837 H   0  0  0  0  0  0  0  0  0  0  0  0
  -11.5887   -1.5076   -3.3332 H   0  0  0  0  0  0  0  0  0  0  0  0
    1.3961    0.8748   -0.0225 H   0  0  0  0  0  0  0  0  0  0  0  0
   -0.1161    1.7759   -0.1005 H   0  0  0  0  0  0  0  0  0  0  0  0
  -10.9059    0.0889   -5.1726 H   0  0  0  0  0  0  0  0  0  0  0  0
   -9.6267   -0.9501   -4.5493 H   0  0  0  0  0  0  0  0  0  0  0  0
    0.9262   -0.0942   -2.2879 H   0  0  0  0  0  0  0  0  0  0  0  0
   -9.2150    1.7400   -5.9465 H   0  0  0  0  0  0  0  0  0  0  0  0
    0.1319   -1.1928   -0.0145 H   0  0  0  0  0  0  0  0  0  0  0  0
  -10.3270    1.7535   -3.5090 H   0  0  0  0  0  0  0  0  0  0  0  0
  1  5  2  0  0  0  0
  1  9  1  0  0  0  0
  1 29  1  0  0  0  0
  2  6  1  0  0  0  0
  2  9  2  0  0  0  0
  2 30  1  0  0  0  0
  3  7  2  0  0  0  0
  3 10  1  0  0  0  0
  3 31  1  0  0  0  0
  4  8  1  0  0  0  0
  4 10  2  0  0  0  0
  4 32  1  0  0  0  0
  5 11  1  0  0  0  0
  5 33  1  0  0  0  0
  6 11  2  0  0  0  0
  6 34  1  0  0  0  0
  7 12  1  0  0  0  0
  7 35  1  0  0  0  0
  8 12  2  0  0  0  0
  8 36  1  0  0  0  0
  9 10  1  0  0  0  0
 11 19  1  0  0  0  0
 12 20  1  0  0  0  0
 13 19  1  0  0  0  0
 13 37  1  0  0  0  0
 13 38  1  0  0  0  0
 13 39  1  0  0  0  0
 14 20  1  0  0  0  0
 14 40  1  0  0  0  0
 14 41  1  0  0  0  0
 14 42  1  0  0  0  0
 15 27  1  0  0  0  0
 15 43  1  0  0  0  0
 15 44  1  0  0  0  0
 15 45  1  0  0  0  0
 16 28  1  0  0  0  0
 16 46  1  0  0  0  0
 16 47  1  0  0  0  0
 16 48  1  0  0  0  0
 17 19  1  0  0  0  0
 17 21  1  0  0  0  0
 17 49  1  0  0  0  0
 17 50  1  0  0  0  0
 18 20  1  0  0  0  0
 18 22  1  0  0  0  0
 18 51  1  0  0  0  0
 18 52  1  0  0  0  0
 19 53  1  6  0  0  0
 20 54  1  6  0  0  0
 21 27  1  0  0  0  0
 21 55  1  0  0  0  0
 22 28  1  0  0  0  0
 22 56  1  0  0  0  0
 23 27  2  0  0  0  0
 24 27  2  0  0  0  0
 25 28  2  0  0  0  0
 26 28  2  0  0  0  0
M  END
$$$$
DrugBank_2824
 OpenBabel01151909533D

 78 82  0  0  1  0  0  0  0  0999 V2000
    0.7903   -6.2368   -3.0154 C   0  0  0  0  0  0  0  0  0  0  0  0
    1.5774    3.3973   -0.5082 C   0  0  0  0  0  0  0  0  0  0  0  0
   -2.0161   -5.4553    1.1225 C   0  0  0  0  0  0  0  0  0  0  0  0
   -2.9435    1.1414   -0.7925 C   0  0  0  0  0  0  0  0  0  0  0  0
    0.7261   -6.8413   -1.7597 C   0  0  0  0  0  0  0  0  0  0  0  0
    1.0209    2.2640    0.0854 C   0  0  0  0  0  0  0  0  0  0  0  0
   -1.9520   -4.8507   -0.1332 C   0  0  0  0  0  0  0  0  0  0  0  0
   -2.3871    2.2747   -1.3860 C   0  0  0  0  0  0  0  0  0  0  0  0
    2.8049   -4.2879    0.3797 C   0  0  0  0  0  0  0  0  0  0  0  0
    2.5836   -3.6617    2.7026 C   0  0  0  0  0  0  0  0  0  0  0  0
   -0.0528   -5.1723   -3.3202 C   0  0  0  0  0  0  0  0  0  0  0  0
    0.8232    4.1617   -1.3935 C   0  0  0  0  0  0  0  0  0  0  0  0
    2.1689   -3.1059    0.0005 C   0  0  0  0  0  0  0  0  0  0  0  0
    1.9477   -2.4796    2.3234 C   0  0  0  0  0  0  0  0  0  0  0  0
   -1.1730   -6.5198    1.4273 C   0  0  0  0  0  0  0  0  0  0  0  0
   -2.1893    0.3770    0.0929 C   0  0  0  0  0  0  0  0  0  0  0  0
   -1.0416   -5.3048   -1.1014 C   0  0  0  0  0  0  0  0  0  0  0  0
   -1.0665    2.6580   -1.1005 C   0  0  0  0  0  0  0  0  0  0  0  0
   -0.1842   -6.3873   -0.7915 C   0  0  0  0  0  0  0  0  0  0  0  0
   -0.2996    1.8807   -0.2002 C   0  0  0  0  0  0  0  0  0  0  0  0
    3.0122   -4.5659    1.7308 C   0  0  0  0  0  0  0  0  0  0  0  0
   -0.9634   -4.7083   -2.3705 C   0  0  0  0  0  0  0  0  0  0  0  0
   -0.4903    3.7957   -1.6887 C   0  0  0  0  0  0  0  0  0  0  0  0
    1.7403   -2.2017    0.9723 C   0  0  0  0  0  0  0  0  0  0  0  0
   -0.2625   -6.9839    0.4775 C   0  0  0  0  0  0  0  0  0  0  0  0
   -0.8758    0.7430    0.3880 C   0  0  0  0  0  0  0  0  0  0  0  0
    3.3620   -8.0600    3.2562 C   0  0  0  0  0  0  0  0  0  0  0  0
   -3.0865   -3.8723   -3.3470 C   0  0  0  0  0  0  0  0  0  0  0  0
   -1.3809   -2.2641   -2.4792 C   0  0  0  0  0  0  0  0  0  0  0  0
   -1.1745    4.3205   -4.0161 C   0  0  0  0  0  0  0  0  0  0  0  0
   -2.0038    5.7160   -2.1153 C   0  0  0  0  0  0  0  0  0  0  0  0
    3.7011   -5.8451    2.1414 C   0  0  0  0  0  0  0  0  0  0  0  0
    2.7238   -7.0070    2.3621 C   0  0  1  0  0  0  0  0  0  0  0  0
    2.2902   -7.5923    1.0854 N   0  0  0  0  0  0  0  0  0  0  0  0
   -1.8006   -3.6247   -2.7332 N   0  0  0  0  0  0  0  0  0  0  0  0
   -1.2125    4.6061   -2.5989 N   0  0  0  0  0  0  0  0  0  0  0  0
    4.0357   -8.9872    2.8193 O   0  0  0  0  0  0  0  0  0  0  0  0
    0.3370   -8.7722    2.2810 O   0  0  0  0  0  0  0  0  0  0  0  0
    0.7777   -9.2765   -0.1430 O   0  0  0  0  0  0  0  0  0  0  0  0
    0.6591    0.6106    2.4437 O   0  0  0  0  0  0  0  0  0  0  0  0
   -0.9525   -1.2908    1.9841 O   0  0  0  0  0  0  0  0  0  0  0  0
    3.1360   -7.8937    4.5814 O   0  0  0  0  0  0  0  0  0  0  0  0
    1.1209   -1.0477    0.6020 O   0  0  0  0  0  0  0  0  0  0  0  0
    0.7568   -8.3313    0.9609 S   0  0  0  0  0  0  0  0  0  0  0  0
   -0.0047   -0.2931    1.5240 S   0  0  0  0  0  0  0  0  0  0  0  0
    1.4989   -6.5974   -3.7554 H   0  0  0  0  0  0  0  0  0  0  0  0
    2.5999    3.6831   -0.2788 H   0  0  0  0  0  0  0  0  0  0  0  0
   -2.7257   -5.0954    1.8619 H   0  0  0  0  0  0  0  0  0  0  0  0
   -3.9656    0.8550   -1.0229 H   0  0  0  0  0  0  0  0  0  0  0  0
    1.4045   -7.6685   -1.5693 H   0  0  0  0  0  0  0  0  0  0  0  0
    1.6493    1.7000    0.7693 H   0  0  0  0  0  0  0  0  0  0  0  0
   -2.6285   -4.0226   -0.3322 H   0  0  0  0  0  0  0  0  0  0  0  0
   -3.0091    2.8443   -2.0729 H   0  0  0  0  0  0  0  0  0  0  0  0
    3.1354   -4.9867   -0.3841 H   0  0  0  0  0  0  0  0  0  0  0  0
    2.7409   -3.8701    3.7578 H   0  0  0  0  0  0  0  0  0  0  0  0
    0.0074   -4.7115   -4.3032 H   0  0  0  0  0  0  0  0  0  0  0  0
    1.2701    5.0418   -1.8495 H   0  0  0  0  0  0  0  0  0  0  0  0
    2.0105   -2.8948   -1.0538 H   0  0  0  0  0  0  0  0  0  0  0  0
    1.6166   -1.7793    3.0851 H   0  0  0  0  0  0  0  0  0  0  0  0
   -1.2359   -6.9803    2.4099 H   0  0  0  0  0  0  0  0  0  0  0  0
   -2.6373   -0.5035    0.5463 H   0  0  0  0  0  0  0  0  0  0  0  0
   -3.5911   -2.9256   -3.5569 H   0  0  0  0  0  0  0  0  0  0  0  0
   -3.7162   -4.4661   -2.6789 H   0  0  0  0  0  0  0  0  0  0  0  0
   -2.9585   -4.4185   -4.2854 H   0  0  0  0  0  0  0  0  0  0  0  0
   -2.1473   -1.5642   -2.8223 H   0  0  0  0  0  0  0  0  0  0  0  0
   -0.4479   -2.0514   -3.0083 H   0  0  0  0  0  0  0  0  0  0  0  0
   -1.2192   -2.1120   -1.4087 H   0  0  0  0  0  0  0  0  0  0  0  0
   -1.7859    5.0439   -4.5617 H   0  0  0  0  0  0  0  0  0  0  0  0
   -1.5608    3.3161   -4.2098 H   0  0  0  0  0  0  0  0  0  0  0  0
   -0.1472    4.3781   -4.3859 H   0  0  0  0  0  0  0  0  0  0  0  0
   -2.4880    6.2252   -2.9526 H   0  0  0  0  0  0  0  0  0  0  0  0
   -1.3678    6.4322   -1.5880 H   0  0  0  0  0  0  0  0  0  0  0  0
   -2.7748    5.3590   -1.4271 H   0  0  0  0  0  0  0  0  0  0  0  0
    4.2717   -5.6451    3.0583 H   0  0  0  0  0  0  0  0  0  0  0  0
    4.4519   -6.1202    1.3881 H   0  0  0  0  0  0  0  0  0  0  0  0
    1.8109   -6.6708    2.8670 H   0  0  0  0  0  0  0  0  0  0  0  0
    2.7177   -7.1958    0.2396 H   0  0  0  0  0  0  0  0  0  0  0  0
    2.5832   -7.1172    4.8108 H   0  0  0  0  0  0  0  0  0  0  0  0
  1  5  2  0  0  0  0
  1 11  1  0  0  0  0
  1 46  1  0  0  0  0
  2  6  2  0  0  0  0
  2 12  1  0  0  0  0
  2 47  1  0  0  0  0
  3  7  2  0  0  0  0
  3 15  1  0  0  0  0
  3 48  1  0  0  0  0
  4  8  2  0  0  0  0
  4 16  1  0  0  0  0
  4 49  1  0  0  0  0
  5 19  1  0  0  0  0
  5 50  1  0  0  0  0
  6 20  1  0  0  0  0
  6 51  1  0  0  0  0
  7 17  1  0  0  0  0
  7 52  1  0  0  0  0
  8 18  1  0  0  0  0
  8 53  1  0  0  0  0
  9 13  2  0  0  0  0
  9 21  1  0  0  0  0
  9 54  1  0  0  0  0
 10 14  1  0  0  0  0
 10 21  2  0  0  0  0
 10 55  1  0  0  0  0
 11 22  2  0  0  0  0
 11 56  1  0  0  0  0
 12 23  2  0  0  0  0
 12 57  1  0  0  0  0
 13 24  1  0  0  0  0
 13 58  1  0  0  0  0
 14 24  2  0  0  0  0
 14 59  1  0  0  0  0
 15 25  2  0  0  0  0
 15 60  1  0  0  0  0
 16 26  2  0  0  0  0
 16 61  1  0  0  0  0
 17 19  2  0  0  0  0
 17 22  1  0  0  0  0
 18 20  2  0  0  0  0
 18 23  1  0  0  0  0
 19 25  1  0  0  0  0
 20 26  1  0  0  0  0
 21 32  1  0  0  0  0
 22 35  1  0  0  0  0
 23 36  1  0  0  0  0
 24 43  1  0  0  0  0
 25 44  1  0  0  0  0
 26 45  1  0  0  0  0
 27 33  1  0  0  0  0
 27 37  2  0  0  0  0
 27 42  1  0  0  0  0
 28 35  1  0  0  0  0
 28 62  1  0  0  0  0
 28 63  1  0  0  0  0
 28 64  1  0  0  0  0
 29 35  1  0  0  0  0
 29 65  1  0  0  0  0
 29 66  1  0  0  0  0
 29 67  1  0  0  0  0
 30 36  1  0  0  0  0
 30 68  1  0  0  0  0
 30 69  1  0  0  0  0
 30 70  1  0  0  0  0
 31 36  1  0  0  0  0
 31 71  1  0  0  0  0
 31 72  1  0  0  0  0
 31 73  1  0  0  0  0
 32 33  1  0  0  0  0
 32 74  1  0  0  0  0
 32 75  1  0  0  0  0
 33 34  1  0  0  0  0
 33 76  1  1  0  0  0
 34 44  1  0  0  0  0
 34 77  1  0  0  0  0
 38 44  2  0  0  0  0
 39 44  2  0  0  0  0
 40 45  2  0  0  0  0
 41 45  2  0  0  0  0
 42 78  1  0  0  0  0
 43 45  1  0  0  0  0
M  END
$$$$
DrugBank_5407
 OpenBabel01151909533D

 32 33  0  0  0  0  0  0  0  0999 V2000
    0.9353   -1.7967    0.9763 C   0  0  0  0  0  0  0  0  0  0  0  0
    0.6205   -0.4491    0.8018 C   0  0  0  0  0  0  0  0  0  0  0  0
    1.5802   -2.2173    2.1395 C   0  0  0  0  0  0  0  0  0  0  0  0
    4.3418   -3.0425    6.3831 C   0  0  0  0  0  0  0  0  0  0  0  0
    5.8818   -3.5952    4.6055 C   0  0  0  0  0  0  0  0  0  0  0  0
    0.9506    0.4779    1.7903 C   0  0  0  0  0  0  0  0  0  0  0  0
    5.1955   -3.6418    7.3091 C   0  0  0  0  0  0  0  0  0  0  0  0
    6.7357   -4.1944    5.5315 C   0  0  0  0  0  0  0  0  0  0  0  0
    1.9104   -1.2902    3.1280 C   0  0  0  0  0  0  0  0  0  0  0  0
    4.6849   -3.0193    5.0312 C   0  0  0  0  0  0  0  0  0  0  0  0
    1.5956    0.0574    2.9535 C   0  0  0  0  0  0  0  0  0  0  0  0
    6.3925   -4.2177    6.8833 C   0  0  0  0  0  0  0  0  0  0  0  0
    2.5842   -1.7854    4.3232 C   0  0  0  0  0  0  0  0  0  0  0  0
    8.4453   -3.6430    8.4835 N   0  0  0  0  0  0  0  0  0  0  0  0
    3.8171   -2.4102    4.0900 N   0  0  0  0  0  0  0  0  0  0  0  0
    2.0720   -1.6827    5.4440 O   0  0  0  0  0  0  0  0  0  0  0  0
    6.6734   -5.3736    9.1982 O   0  0  0  0  0  0  0  0  0  0  0  0
    8.2824   -5.9491    7.3469 O   0  0  0  0  0  0  0  0  0  0  0  0
    1.9957    1.2887    4.1885 S   0  0  0  0  0  0  0  0  0  0  0  0
    7.4610   -4.9682    8.0424 S   0  0  0  0  0  0  0  0  0  0  0  0
    0.6793   -2.5183    0.2059 H   0  0  0  0  0  0  0  0  0  0  0  0
    0.1193   -0.1216   -0.1044 H   0  0  0  0  0  0  0  0  0  0  0  0
    1.8206   -3.2706    2.2625 H   0  0  0  0  0  0  0  0  0  0  0  0
    3.4115   -2.5969    6.7261 H   0  0  0  0  0  0  0  0  0  0  0  0
    6.1595   -3.5827    3.5545 H   0  0  0  0  0  0  0  0  0  0  0  0
    0.6972    1.5234    1.6325 H   0  0  0  0  0  0  0  0  0  0  0  0
    4.9184   -3.6546    8.3598 H   0  0  0  0  0  0  0  0  0  0  0  0
    7.6657   -4.6401    5.1890 H   0  0  0  0  0  0  0  0  0  0  0  0
    8.3207   -3.2410    9.4207 H   0  0  0  0  0  0  0  0  0  0  0  0
    9.4183   -3.6345    8.1542 H   0  0  0  0  0  0  0  0  0  0  0  0
    4.1289   -2.4289    3.1222 H   0  0  0  0  0  0  0  0  0  0  0  0
    1.4938    2.3459    3.5343 H   0  0  0  0  0  0  0  0  0  0  0  0
  1  2  2  0  0  0  0
  1  3  1  0  0  0  0
  1 21  1  0  0  0  0
  2  6  1  0  0  0  0
  2 22  1  0  0  0  0
  3  9  2  0  0  0  0
  3 23  1  0  0  0  0
  4  7  2  0  0  0  0
  4 10  1  0  0  0  0
  4 24  1  0  0  0  0
  5  8  1  0  0  0  0
  5 10  2  0  0  0  0
  5 25  1  0  0  0  0
  6 11  2  0  0  0  0
  6 26  1  0  0  0  0
  7 12  1  0  0  0  0
  7 27  1  0  0  0  0
  8 12  2  0  0  0  0
  8 28  1  0  0  0  0
  9 11  1  0  0  0  0
  9 13  1  0  0  0  0
 10 15  1  0  0  0  0
 11 19  1  0  0  0  0
 12 20  1  0  0  0  0
 13 15  1  0  0  0  0
 13 16  2  0  0  0  0
 14 20  1  0  0  0  0
 14 29  1  0  0  0  0
 14 30  1  0  0  0  0
 15 31  1  0  0  0  0
 17 20  2  0  0  0  0
 18 20  2  0  0  0  0
 19 32  1  0  0  0  0
M  END
$$$$
DrugBank_2830
 OpenBabel01151909533D

 21 20  0  0  0  0  0  0  0  0999 V2000
   -0.7511    0.0975    4.1282 C   0  0  0  0  0  0  0  0  0  0  0  0
   -1.7366    1.0665    4.6949 C   0  0  0  0  0  0  0  0  0  0  0  0
   -0.3787    0.3456    2.6860 C   0  0  0  0  0  0  0  0  0  0  0  0
    0.9904   -0.2581    0.3888 C   0  0  0  0  0  0  0  0  0  0  0  0
    1.9097    0.9488    0.3605 C   0  0  0  0  0  0  0  0  0  0  0  0
   -0.3205   -0.8060    4.8329 O   0  0  0  0  0  0  0  0  0  0  0  0
    0.8324    1.9180   -1.8268 O   0  0  0  0  0  0  0  0  0  0  0  0
    3.0069    0.6296   -1.9990 O   0  0  0  0  0  0  0  0  0  0  0  0
    2.9582    2.8934   -0.9216 O   0  0  0  0  0  0  0  0  0  0  0  0
    0.8078   -0.8779    2.0836 S   0  0  0  0  0  0  0  0  0  0  0  0
    2.1265    1.5398   -1.2901 S   0  0  0  0  0  0  0  0  0  0  0  0
   -2.7786    0.7389    4.5543 H   0  0  0  0  0  0  0  0  0  0  0  0
   -1.6142    1.2059    5.7804 H   0  0  0  0  0  0  0  0  0  0  0  0
   -1.6842    2.0767    4.2599 H   0  0  0  0  0  0  0  0  0  0  0  0
    0.0648    1.3413    2.5970 H   0  0  0  0  0  0  0  0  0  0  0  0
   -1.2821    0.2932    2.0718 H   0  0  0  0  0  0  0  0  0  0  0  0
    1.3903   -1.0629   -0.2366 H   0  0  0  0  0  0  0  0  0  0  0  0
    0.0000    0.0000    0.0000 H   0  0  0  0  0  0  0  0  0  0  0  0
    2.9093    0.7084    0.7370 H   0  0  0  0  0  0  0  0  0  0  0  0
    1.5026    1.7851    0.9376 H   0  0  0  0  0  0  0  0  0  0  0  0
    2.4491    3.5836   -0.4348 H   0  0  0  0  0  0  0  0  0  0  0  0
  1  2  1  0  0  0  0
  1  3  1  0  0  0  0
  1  6  2  0  0  0  0
  2 12  1  0  0  0  0
  2 13  1  0  0  0  0
  2 14  1  0  0  0  0
  3 10  1  0  0  0  0
  3 15  1  0  0  0  0
  3 16  1  0  0  0  0
  4  5  1  0  0  0  0
  4 10  1  0  0  0  0
  4 17  1  0  0  0  0
  4 18  1  0  0  0  0
  5 11  1  0  0  0  0
  5 19  1  0  0  0  0
  5 20  1  0  0  0  0
  7 11  2  0  0  0  0
  8 11  2  0  0  0  0
  9 11  1  0  0  0  0
  9 21  1  0  0  0  0
M  END
$$$$
DrugBank_5414
 OpenBabel01151909533D

 25 26  0  0  0  0  0  0  0  0999 V2000
    1.8862   -1.0355   -0.1124 C   0  0  0  0  0  0  0  0  0  0  0  0
    2.4475    0.0112    0.6190 C   0  0  0  0  0  0  0  0  0  0  0  0
    1.2815   -2.1037    0.5502 C   0  0  0  0  0  0  0  0  0  0  0  0
    0.5738   -0.5146    6.1461 C   0  0  0  0  0  0  0  0  0  0  0  0
    1.5874   -1.0979    6.9064 C   0  0  0  0  0  0  0  0  0  0  0  0
    2.4043   -0.0104    2.0131 C   0  0  0  0  0  0  0  0  0  0  0  0
    1.2383   -2.1253    1.9442 C   0  0  0  0  0  0  0  0  0  0  0  0
    0.6575   -0.5160    4.7538 C   0  0  0  0  0  0  0  0  0  0  0  0
    2.6848   -1.6825    6.2742 C   0  0  0  0  0  0  0  0  0  0  0  0
    1.7997   -1.0786    2.6757 C   0  0  0  0  0  0  0  0  0  0  0  0
    1.7549   -1.1005    4.1216 C   0  0  0  0  0  0  0  0  0  0  0  0
    2.7686   -1.6838    4.8818 C   0  0  0  0  0  0  0  0  0  0  0  0
    4.6519   -3.5493    5.0492 O   0  0  0  0  0  0  0  0  0  0  0  0
    5.1496   -1.1786    4.4020 O   0  0  0  0  0  0  0  0  0  0  0  0
    4.2108   -2.4551    4.1227 S   0  0  2  0  0  0  0  0  0  0  0  0
    1.9184   -1.0176   -1.1978 H   0  0  0  0  0  0  0  0  0  0  0  0
    2.9169    0.8438    0.1033 H   0  0  0  0  0  0  0  0  0  0  0  0
    0.8429   -2.9183   -0.0187 H   0  0  0  0  0  0  0  0  0  0  0  0
   -0.2801   -0.0590    6.6386 H   0  0  0  0  0  0  0  0  0  0  0  0
    1.5222   -1.0964    7.9904 H   0  0  0  0  0  0  0  0  0  0  0  0
    2.8462    0.8132    2.5691 H   0  0  0  0  0  0  0  0  0  0  0  0
    0.7631   -2.9643    2.4469 H   0  0  0  0  0  0  0  0  0  0  0  0
   -0.1420   -0.0562    4.1773 H   0  0  0  0  0  0  0  0  0  0  0  0
    3.4651   -2.1320    6.8831 H   0  0  0  0  0  0  0  0  0  0  0  0
    6.0947   -1.4034    4.2333 H   0  0  0  0  0  0  0  0  0  0  0  0
  1  2  2  0  0  0  0
  1  3  1  0  0  0  0
  1 16  1  0  0  0  0
  2  6  1  0  0  0  0
  2 17  1  0  0  0  0
  3  7  2  0  0  0  0
  3 18  1  0  0  0  0
  4  5  2  0  0  0  0
  4  8  1  0  0  0  0
  4 19  1  0  0  0  0
  5  9  1  0  0  0  0
  5 20  1  0  0  0  0
  6 10  2  0  0  0  0
  6 21  1  0  0  0  0
  7 10  1  0  0  0  0
  7 22  1  0  0  0  0
  8 11  2  0  0  0  0
  8 23  1  0  0  0  0
  9 12  2  0  0  0  0
  9 24  1  0  0  0  0
 10 11  1  0  0  0  0
 11 12  1  0  0  0  0
 12 15  1  0  0  0  0
 14 15  1  0  0  0  0
 14 25  1  0  0  0  0
 15 13  2  1  0  0  0
M  END
$$$$
DrugBank_5415
 OpenBabel01151909533D

 34 34  0  0  1  0  0  0  0  0999 V2000
    3.9301    3.1256   -2.8408 C   0  0  0  0  0  0  0  0  0  0  0  0
    3.5896    3.4138   -1.5193 C   0  0  0  0  0  0  0  0  0  0  0  0
    2.9794    2.5785   -3.7026 C   0  0  0  0  0  0  0  0  0  0  0  0
    2.2984    3.1549   -1.0594 C   0  0  0  0  0  0  0  0  0  0  0  0
    1.6882    2.3196   -3.2428 C   0  0  0  0  0  0  0  0  0  0  0  0
    1.3477    2.6077   -1.9212 C   0  0  0  0  0  0  0  0  0  0  0  0
   -0.0870   -0.1339   -1.8988 C   0  0  0  0  0  0  0  0  0  0  0  0
   -0.0513    2.3267   -1.4235 C   0  0  0  0  0  0  0  0  0  0  0  0
    0.5757    0.6564    0.4343 C   0  0  0  0  0  0  0  0  0  0  0  0
    0.8499   -0.6366    2.6820 C   0  0  0  0  0  0  0  0  0  0  0  0
   -0.2878    0.9227   -0.8205 C   0  0  2  0  0  0  0  0  0  0  0  0
    0.0067   -0.3807    1.4343 C   0  0  0  0  0  0  0  0  0  0  0  0
    0.9402    0.5897    3.4930 N   0  0  0  0  0  0  0  0  0  0  0  0
    0.0744    0.7705    4.3668 O   0  0  0  0  0  0  0  0  0  0  0  0
    0.9584   -0.7350   -2.1084 O   0  0  0  0  0  0  0  0  0  0  0  0
    1.8888    1.3604    3.2649 O   0  0  0  0  0  0  0  0  0  0  0  0
   -1.2050   -0.3238   -2.6471 O   0  0  0  0  0  0  0  0  0  0  0  0
   -0.1381   -1.6211    0.7322 O   0  0  0  0  0  0  0  0  0  0  0  0
   -1.2902    0.0506    1.8638 O   0  0  0  0  0  0  0  0  0  0  0  0
    4.9351    3.3285   -3.1991 H   0  0  0  0  0  0  0  0  0  0  0  0
    4.3293    3.8408   -0.8484 H   0  0  0  0  0  0  0  0  0  0  0  0
    3.2439    2.3550   -4.7319 H   0  0  0  0  0  0  0  0  0  0  0  0
    2.0421    3.3824   -0.0281 H   0  0  0  0  0  0  0  0  0  0  0  0
    0.9542    1.8931   -3.9213 H   0  0  0  0  0  0  0  0  0  0  0  0
   -0.7500    2.4852   -2.2565 H   0  0  0  0  0  0  0  0  0  0  0  0
   -0.3212    3.0879   -0.6793 H   0  0  0  0  0  0  0  0  0  0  0  0
    0.6605    1.6017    0.9882 H   0  0  0  0  0  0  0  0  0  0  0  0
    1.6028    0.3849    0.1605 H   0  0  0  0  0  0  0  0  0  0  0  0
    0.3843   -1.3790    3.3384 H   0  0  0  0  0  0  0  0  0  0  0  0
    1.8677   -0.9642    2.4588 H   0  0  0  0  0  0  0  0  0  0  0  0
   -1.3399    0.8809   -0.5111 H   0  0  0  0  0  0  0  0  0  0  0  0
   -1.9833    0.2131   -2.3865 H   0  0  0  0  0  0  0  0  0  0  0  0
   -0.4949   -2.2826    1.3482 H   0  0  0  0  0  0  0  0  0  0  0  0
   -1.6406   -0.6041    2.4902 H   0  0  0  0  0  0  0  0  0  0  0  0
  1  2  2  0  0  0  0
  1  3  1  0  0  0  0
  1 20  1  0  0  0  0
  2  4  1  0  0  0  0
  2 21  1  0  0  0  0
  3  5  2  0  0  0  0
  3 22  1  0  0  0  0
  4  6  2  0  0  0  0
  4 23  1  0  0  0  0
  5  6  1  0  0  0  0
  5 24  1  0  0  0  0
  6  8  1  0  0  0  0
  7 11  1  0  0  0  0
  7 15  2  0  0  0  0
  7 17  1  0  0  0  0
  8 11  1  0  0  0  0
  8 25  1  0  0  0  0
  8 26  1  0  0  0  0
  9 11  1  0  0  0  0
  9 12  1  0  0  0  0
  9 27  1  0  0  0  0
  9 28  1  0  0  0  0
 10 12  1  0  0  0  0
 10 13  1  0  0  0  0
 10 29  1  0  0  0  0
 10 30  1  0  0  0  0
 11 31  1  1  0  0  0
 12 18  1  0  0  0  0
 12 19  1  0  0  0  0
 13 14  1  0  0  0  0
 13 16  2  0  0  0  0
 17 32  1  0  0  0  0
 18 33  1  0  0  0  0
 19 34  1  0  0  0  0
M  END
$$$$
DrugBank_5418
 OpenBabel01151909533D

 29 30  0  0  1  0  0  0  0  0999 V2000
   -0.8983    0.3278    0.5149 C   0  0  0  0  0  0  0  0  0  0  0  0
   -1.9763   -0.5443    0.6596 C   0  0  0  0  0  0  0  0  0  0  0  0
   -2.1288    2.0429    1.6891 C   0  0  0  0  0  0  0  0  0  0  0  0
   -3.2222    1.1784    1.8302 C   0  0  0  0  0  0  0  0  0  0  0  0
   -0.9727    1.6192    1.0327 C   0  0  0  0  0  0  0  0  0  0  0  0
   -3.1299   -0.1263    1.3280 C   0  0  0  0  0  0  0  0  0  0  0  0
   -4.4608    1.6473    2.5384 C   0  0  0  0  0  0  0  0  0  0  0  0
   -5.6298    0.7173    2.2396 C   0  0  0  0  0  0  0  0  0  0  0  0
   -5.1647   -0.7312    2.3781 C   0  0  1  0  0  0  0  0  0  0  0  0
    0.1828    2.5503    0.8826 C   0  0  0  0  0  0  0  0  0  0  0  0
   -6.3199   -1.6963    2.1404 C   0  0  0  0  0  0  0  0  0  0  0  0
   -5.2293   -3.5391    3.7193 O   0  0  0  0  0  0  0  0  0  0  0  0
   -7.0433   -4.2509    1.9743 O   0  0  0  0  0  0  0  0  0  0  0  0
   -4.1432   -1.0457    1.4194 O   0  0  0  0  0  0  0  0  0  0  0  0
   -5.8145   -3.4172    2.3172 P   0  0  1  0  0  0  0  0  0  0  0  0
   -0.0033   -0.0091   -0.0014 H   0  0  0  0  0  0  0  0  0  0  0  0
   -1.9086   -1.5508    0.2551 H   0  0  0  0  0  0  0  0  0  0  0  0
   -2.1835    3.0532    2.0891 H   0  0  0  0  0  0  0  0  0  0  0  0
   -4.2632    1.6616    3.6171 H   0  0  0  0  0  0  0  0  0  0  0  0
   -4.7193    2.6659    2.2274 H   0  0  0  0  0  0  0  0  0  0  0  0
   -6.4628    0.9360    2.9168 H   0  0  0  0  0  0  0  0  0  0  0  0
   -5.9773    0.8975    1.2137 H   0  0  0  0  0  0  0  0  0  0  0  0
   -4.7625   -0.9131    3.3837 H   0  0  0  0  0  0  0  0  0  0  0  0
    0.0924    3.1241   -0.0478 H   0  0  0  0  0  0  0  0  0  0  0  0
    0.2380    3.2552    1.7223 H   0  0  0  0  0  0  0  0  0  0  0  0
    1.1347    2.0039    0.8635 H   0  0  0  0  0  0  0  0  0  0  0  0
   -6.7155   -1.5485    1.1341 H   0  0  0  0  0  0  0  0  0  0  0  0
   -7.1182   -1.4898    2.8553 H   0  0  0  0  0  0  0  0  0  0  0  0
   -4.8043   -3.5917    1.3379 H   0  0  0  0  0  0  0  0  0  0  0  0
  1  2  2  0  0  0  0
  1  5  1  0  0  0  0
  1 16  1  0  0  0  0
  2  6  1  0  0  0  0
  2 17  1  0  0  0  0
  3  4  1  0  0  0  0
  3  5  2  0  0  0  0
  3 18  1  0  0  0  0
  4  6  2  0  0  0  0
  4  7  1  0  0  0  0
  5 10  1  0  0  0  0
  6 14  1  0  0  0  0
  7  8  1  0  0  0  0
  7 19  1  0  0  0  0
  7 20  1  0  0  0  0
  8  9  1  0  0  0  0
  8 21  1  0  0  0  0
  8 22  1  0  0  0  0
  9 11  1  0  0  0  0
  9 14  1  0  0  0  0
  9 23  1  1  0  0  0
 10 24  1  0  0  0  0
 10 25  1  0  0  0  0
 10 26  1  0  0  0  0
 11 15  1  0  0  0  0
 11 27  1  0  0  0  0
 11 28  1  0  0  0  0
 12 15  1  0  0  0  0
 13 15  2  0  0  0  0
 15 29  1  6  0  0  0
M  END
$$$$
DrugBank_104
 OpenBabel01151909533D

 94 97  0  0  1  0  0  0  0  0999 V2000
   10.5668  -10.6150   -1.7486 C   0  0  0  0  0  0  0  0  0  0  0  0
    9.8676  -10.2081   -2.8849 C   0  0  0  0  0  0  0  0  0  0  0  0
    9.8717  -11.0617   -0.6247 C   0  0  0  0  0  0  0  0  0  0  0  0
    8.4734  -10.2478   -2.8973 C   0  0  0  0  0  0  0  0  0  0  0  0
    8.4775  -11.1014   -0.6371 C   0  0  0  0  0  0  0  0  0  0  0  0
    7.6310   -8.1517   -6.4937 C   0  0  0  0  0  0  0  0  0  0  0  0
    7.7998  -10.1825   -7.1085 C   0  0  0  0  0  0  0  0  0  0  0  0
    7.7783  -10.6945   -1.7734 C   0  0  0  0  0  0  0  0  0  0  0  0
    6.3687   -8.6811   -6.3638 C   0  0  0  0  0  0  0  0  0  0  0  0
    5.6513   -8.3809   -2.3883 C   0  0  0  0  0  0  0  0  0  0  0  0
    4.0004   -6.5337   -4.2263 C   0  0  0  0  0  0  0  0  0  0  0  0
   -0.2933   -3.6515    0.1360 C   0  0  0  0  0  0  0  0  0  0  0  0
   -0.4737   -4.5348   -1.0946 C   0  0  0  0  0  0  0  0  0  0  0  0
    0.5258   -2.4048   -0.1835 C   0  0  0  0  0  0  0  0  0  0  0  0
    0.8667   -4.8937   -1.7319 C   0  0  0  0  0  0  0  0  0  0  0  0
    1.8678   -2.7600   -0.8194 C   0  0  0  0  0  0  0  0  0  0  0  0
    2.5723   -2.4360   -8.8861 C   0  0  0  0  0  0  0  0  0  0  0  0
    3.3037   -1.4736   -7.9926 C   0  0  0  0  0  0  0  0  0  0  0  0
    1.6899   -3.6415   -2.0630 C   0  0  0  0  0  0  0  0  0  0  0  0
    2.3348   -2.4600   -7.4015 C   0  0  0  0  0  0  0  0  0  0  0  0
    1.9910  -10.3174    1.2933 C   0  0  0  0  0  0  0  0  0  0  0  0
    1.2899   -7.9223    1.5598 C   0  0  0  0  0  0  0  0  0  0  0  0
    1.1361   -9.0324   -0.6858 C   0  0  0  0  0  0  0  0  0  0  0  0
    6.2684  -10.7374   -1.7861 C   0  0  0  0  0  0  0  0  0  0  0  0
    5.0590   -8.0892   -5.9041 C   0  0  0  0  0  0  0  0  0  0  0  0
    3.0466   -4.0274   -2.6493 C   0  0  0  0  0  0  0  0  0  0  0  0
    4.1850   -9.6844   -0.8349 C   0  0  0  0  0  0  0  0  0  0  0  0
    5.6238   -9.4290   -1.2906 C   0  0  2  0  0  0  0  0  0  0  0  0
    5.1428   -7.4799   -4.5027 C   0  0  2  0  0  0  0  0  0  0  0  0
    2.8363   -3.6113   -6.5726 C   0  0  1  0  0  0  0  0  0  0  0  0
    2.9474   -4.4571   -4.1204 C   0  0  1  0  0  0  0  0  0  0  0  0
    2.9002   -3.2469   -5.0764 C   0  0  1  0  0  0  0  0  0  0  0  0
    1.9337   -8.9441    0.6183 C   0  0  0  0  0  0  0  0  0  0  0  0
    8.5172   -9.0913   -6.9580 N   0  0  0  0  0  0  0  0  0  0  0  0
    5.0607   -8.5578   -3.5114 N   0  0  0  0  0  0  0  0  0  0  0  0
    4.1240   -5.2756   -4.4474 N   0  0  0  0  0  0  0  0  0  0  0  0
    6.4925   -9.9825   -6.7617 N   0  0  0  0  0  0  0  0  0  0  0  0
    3.4981   -7.1828   -0.5146 O   0  0  0  0  0  0  0  0  0  0  0  0
    4.3580   -8.4752    1.4759 O   0  0  0  0  0  0  0  0  0  0  0  0
    6.3544   -7.2844   -2.0139 O   0  0  0  0  0  0  0  0  0  0  0  0
    2.8863   -7.1111   -3.7213 O   0  0  0  0  0  0  0  0  0  0  0  0
    1.9580   -4.7129   -6.7815 O   0  0  0  0  0  0  0  0  0  0  0  0
    4.0405   -2.4173   -4.8464 O   0  0  0  0  0  0  0  0  0  0  0  0
    3.5901   -8.4176    0.2445 S   0  0  0  0  0  0  0  0  0  0  0  0
   11.6524  -10.5854   -1.7395 H   0  0  0  0  0  0  0  0  0  0  0  0
   10.4087   -9.8613   -3.7604 H   0  0  0  0  0  0  0  0  0  0  0  0
   10.4158  -11.3797    0.2598 H   0  0  0  0  0  0  0  0  0  0  0  0
    7.9369   -9.9286   -3.7870 H   0  0  0  0  0  0  0  0  0  0  0  0
    7.9443  -11.4508    0.2431 H   0  0  0  0  0  0  0  0  0  0  0  0
    7.9493   -7.1419   -6.2773 H   0  0  0  0  0  0  0  0  0  0  0  0
    8.1608  -11.1386   -7.4600 H   0  0  0  0  0  0  0  0  0  0  0  0
   -1.2744   -3.3580    0.5262 H   0  0  0  0  0  0  0  0  0  0  0  0
    0.2080   -4.2245    0.9257 H   0  0  0  0  0  0  0  0  0  0  0  0
   -1.0063   -5.4509   -0.8149 H   0  0  0  0  0  0  0  0  0  0  0  0
   -1.0992   -4.0137   -1.8299 H   0  0  0  0  0  0  0  0  0  0  0  0
   -0.0416   -1.7597   -0.8656 H   0  0  0  0  0  0  0  0  0  0  0  0
    0.6932   -1.8295    0.7342 H   0  0  0  0  0  0  0  0  0  0  0  0
    1.4296   -5.5401   -1.0463 H   0  0  0  0  0  0  0  0  0  0  0  0
    0.6893   -5.4769   -2.6434 H   0  0  0  0  0  0  0  0  0  0  0  0
    2.3968   -1.8375   -1.0870 H   0  0  0  0  0  0  0  0  0  0  0  0
    2.4905   -3.2794   -0.0796 H   0  0  0  0  0  0  0  0  0  0  0  0
    1.7979   -2.0364   -9.5293 H   0  0  0  0  0  0  0  0  0  0  0  0
    3.1384   -3.2516   -9.3190 H   0  0  0  0  0  0  0  0  0  0  0  0
    4.3604   -1.6439   -7.8267 H   0  0  0  0  0  0  0  0  0  0  0  0
    3.0189   -0.4297   -8.0373 H   0  0  0  0  0  0  0  0  0  0  0  0
    1.1484   -3.0624   -2.8225 H   0  0  0  0  0  0  0  0  0  0  0  0
    1.3884   -2.0785   -7.0374 H   0  0  0  0  0  0  0  0  0  0  0  0
    2.4492  -11.0638    0.6345 H   0  0  0  0  0  0  0  0  0  0  0  0
    2.5764  -10.2811    2.2186 H   0  0  0  0  0  0  0  0  0  0  0  0
    0.9869  -10.6778    1.5440 H   0  0  0  0  0  0  0  0  0  0  0  0
    1.2396   -6.9313    1.0942 H   0  0  0  0  0  0  0  0  0  0  0  0
    1.8674   -7.8178    2.4855 H   0  0  0  0  0  0  0  0  0  0  0  0
    0.2707   -8.2190    1.8307 H   0  0  0  0  0  0  0  0  0  0  0  0
    1.0835   -8.0580   -1.1848 H   0  0  0  0  0  0  0  0  0  0  0  0
    1.5926   -9.7433   -1.3833 H   0  0  0  0  0  0  0  0  0  0  0  0
    0.1065   -9.3581   -0.4992 H   0  0  0  0  0  0  0  0  0  0  0  0
    5.9447  -10.9474   -2.8142 H   0  0  0  0  0  0  0  0  0  0  0  0
    5.9194  -11.5889   -1.1871 H   0  0  0  0  0  0  0  0  0  0  0  0
    4.2740   -8.8559   -5.9478 H   0  0  0  0  0  0  0  0  0  0  0  0
    4.7515   -7.3212   -6.6267 H   0  0  0  0  0  0  0  0  0  0  0  0
    3.7294   -3.1760   -2.5403 H   0  0  0  0  0  0  0  0  0  0  0  0
    3.4581   -4.8518   -2.0547 H   0  0  0  0  0  0  0  0  0  0  0  0
    3.5006   -9.6939   -1.6895 H   0  0  0  0  0  0  0  0  0  0  0  0
    4.0804  -10.6322   -0.2974 H   0  0  0  0  0  0  0  0  0  0  0  0
    6.1964   -9.0469   -0.4348 H   0  0  0  0  0  0  0  0  0  0  0  0
    6.0903   -6.9467   -4.3619 H   0  0  0  0  0  0  0  0  0  0  0  0
    3.8293   -3.8843   -6.9492 H   0  0  0  0  0  0  0  0  0  0  0  0
    2.0435   -5.0627   -4.2560 H   0  0  0  0  0  0  0  0  0  0  0  0
    2.0168   -2.6499   -4.8170 H   0  0  0  0  0  0  0  0  0  0  0  0
    5.7547  -10.6739   -6.7937 H   0  0  0  0  0  0  0  0  0  0  0  0
    6.7233   -7.3415   -1.1178 H   0  0  0  0  0  0  0  0  0  0  0  0
    2.9744   -8.0729   -3.6032 H   0  0  0  0  0  0  0  0  0  0  0  0
    1.9876   -4.9150   -7.7298 H   0  0  0  0  0  0  0  0  0  0  0  0
    4.8136   -2.9363   -5.1138 H   0  0  0  0  0  0  0  0  0  0  0  0
  1  2  2  0  0  0  0
  1  3  1  0  0  0  0
  1 45  1  0  0  0  0
  2  4  1  0  0  0  0
  2 46  1  0  0  0  0
  3  5  2  0  0  0  0
  3 47  1  0  0  0  0
  4  8  2  0  0  0  0
  4 48  1  0  0  0  0
  5  8  1  0  0  0  0
  5 49  1  0  0  0  0
  6  9  2  0  0  0  0
  6 34  1  0  0  0  0
  6 50  1  0  0  0  0
  7 34  2  0  0  0  0
  7 37  1  0  0  0  0
  7 51  1  0  0  0  0
  8 24  1  0  0  0  0
  9 25  1  0  0  0  0
  9 37  1  0  0  0  0
 10 28  1  0  0  0  0
 10 35  2  0  0  0  0
 10 40  1  0  0  0  0
 11 29  1  0  0  0  0
 11 36  2  0  0  0  0
 11 41  1  0  0  0  0
 12 13  1  0  0  0  0
 12 14  1  0  0  0  0
 12 52  1  0  0  0  0
 12 53  1  0  0  0  0
 13 15  1  0  0  0  0
 13 54  1  0  0  0  0
 13 55  1  0  0  0  0
 14 16  1  0  0  0  0
 14 56  1  0  0  0  0
 14 57  1  0  0  0  0
 15 19  1  0  0  0  0
 15 58  1  0  0  0  0
 15 59  1  0  0  0  0
 16 19  1  0  0  0  0
 16 60  1  0  0  0  0
 16 61  1  0  0  0  0
 17 18  1  0  0  0  0
 17 20  1  0  0  0  0
 17 62  1  0  0  0  0
 17 63  1  0  0  0  0
 18 20  1  0  0  0  0
 18 64  1  0  0  0  0
 18 65  1  0  0  0  0
 19 26  1  0  0  0  0
 19 66  1  0  0  0  0
 20 30  1  0  0  0  0
 20 67  1  0  0  0  0
 21 33  1  0  0  0  0
 21 68  1  0  0  0  0
 21 69  1  0  0  0  0
 21 70  1  0  0  0  0
 22 33  1  0  0  0  0
 22 71  1  0  0  0  0
 22 72  1  0  0  0  0
 22 73  1  0  0  0  0
 23 33  1  0  0  0  0
 23 74  1  0  0  0  0
 23 75  1  0  0  0  0
 23 76  1  0  0  0  0
 24 28  1  0  0  0  0
 24 77  1  0  0  0  0
 24 78  1  0  0  0  0
 25 29  1  0  0  0  0
 25 79  1  0  0  0  0
 25 80  1  0  0  0  0
 26 31  1  0  0  0  0
 26 81  1  0  0  0  0
 26 82  1  0  0  0  0
 27 28  1  0  0  0  0
 27 44  1  0  0  0  0
 27 83  1  0  0  0  0
 27 84  1  0  0  0  0
 28 85  1  1  0  0  0
 29 35  1  0  0  0  0
 29 86  1  1  0  0  0
 30 32  1  0  0  0  0
 30 42  1  0  0  0  0
 30 87  1  6  0  0  0
 31 32  1  0  0  0  0
 31 36  1  0  0  0  0
 31 88  1  6  0  0  0
 32 43  1  0  0  0  0
 32 89  1  1  0  0  0
 33 44  1  0  0  0  0
 37 90  1  0  0  0  0
 38 44  2  0  0  0  0
 39 44  2  0  0  0  0
 40 91  1  0  0  0  0
 41 92  1  0  0  0  0
 42 93  1  0  0  0  0
 43 94  1  0  0  0  0
M  END
$$$$
DrugBank_128
 OpenBabel01151909533D

 32 32  0  0  0  0  0  0  0  0999 V2000
    2.4034    2.0404    0.0577 C   0  0  0  0  0  0  0  0  0  0  0  0
   -0.2719   -1.3717   -3.3636 C   0  0  0  0  0  0  0  0  0  0  0  0
    1.0596   -0.0959   -0.2659 C   0  0  0  0  0  0  0  0  0  0  0  0
    1.2280   -1.0867   -1.4148 C   0  0  0  0  0  0  0  0  0  0  0  0
    0.9055    1.7545   -1.8922 C   0  0  0  0  0  0  0  0  0  0  0  0
    1.0739    0.7636   -3.0408 C   0  0  0  0  0  0  0  0  0  0  0  0
    2.9281    1.4679    1.3501 C   0  0  0  0  0  0  0  0  0  0  0  0
   -0.8603   -0.7668   -4.6131 C   0  0  0  0  0  0  0  0  0  0  0  0
    3.8708    2.4419    2.0164 C   0  0  0  0  0  0  0  0  0  0  0  0
   -1.7970   -1.7437   -5.2836 C   0  0  0  0  0  0  0  0  0  0  0  0
    1.5180    1.2418   -0.6640 N   0  0  0  0  0  0  0  0  0  0  0  0
    0.6148   -0.5738   -2.6426 N   0  0  0  0  0  0  0  0  0  0  0  0
    2.7727    3.1620   -0.2995 O   0  0  0  0  0  0  0  0  0  0  0  0
   -0.5934   -2.5174   -3.0384 O   0  0  0  0  0  0  0  0  0  0  0  0
    4.4843    1.7510    3.7334 Br  0  0  0  0  0  0  0  0  0  0  0  0
   -2.6347   -0.9399   -6.8501 Br  0  0  0  0  0  0  0  0  0  0  0  0
    0.0001   -0.0000    0.0002 H   0  0  0  0  0  0  0  0  0  0  0  0
    1.5867   -0.4659    0.6150 H   0  0  0  0  0  0  0  0  0  0  0  0
    2.2919   -1.2431   -1.6299 H   0  0  0  0  0  0  0  0  0  0  0  0
    0.7998   -2.0551   -1.1377 H   0  0  0  0  0  0  0  0  0  0  0  0
    1.3326    2.7233   -2.1689 H   0  0  0  0  0  0  0  0  0  0  0  0
   -0.1586    1.9097   -1.6770 H   0  0  0  0  0  0  0  0  0  0  0  0
    0.5478    1.1336   -3.9224 H   0  0  0  0  0  0  0  0  0  0  0  0
    2.1336    0.6674   -3.3066 H   0  0  0  0  0  0  0  0  0  0  0  0
    3.3991    0.5103    1.1285 H   0  0  0  0  0  0  0  0  0  0  0  0
    2.0576    1.2989    1.9859 H   0  0  0  0  0  0  0  0  0  0  0  0
   -0.0379   -0.4604   -5.2594 H   0  0  0  0  0  0  0  0  0  0  0  0
   -1.4124    0.1186   -4.2940 H   0  0  0  0  0  0  0  0  0  0  0  0
    3.3599    3.3825    2.2394 H   0  0  0  0  0  0  0  0  0  0  0  0
    4.7680    2.6437    1.4243 H   0  0  0  0  0  0  0  0  0  0  0  0
   -2.6174   -2.0140   -4.6131 H   0  0  0  0  0  0  0  0  0  0  0  0
   -1.2940   -2.6506   -5.6312 H   0  0  0  0  0  0  0  0  0  0  0  0
  1  7  1  0  0  0  0
  1 11  1  0  0  0  0
  1 13  2  0  0  0  0
  2  8  1  0  0  0  0
  2 12  1  0  0  0  0
  2 14  2  0  0  0  0
  3  4  1  0  0  0  0
  3 11  1  0  0  0  0
  3 17  1  0  0  0  0
  3 18  1  0  0  0  0
  4 12  1  0  0  0  0
  4 19  1  0  0  0  0
  4 20  1  0  0  0  0
  5  6  1  0  0  0  0
  5 11  1  0  0  0  0
  5 21  1  0  0  0  0
  5 22  1  0  0  0  0
  6 12  1  0  0  0  0
  6 23  1  0  0  0  0
  6 24  1  0  0  0  0
  7  9  1  0  0  0  0
  7 25  1  0  0  0  0
  7 26  1  0  0  0  0
  8 10  1  0  0  0  0
  8 27  1  0  0  0  0
  8 28  1  0  0  0  0
  9 15  1  0  0  0  0
  9 29  1  0  0  0  0
  9 30  1  0  0  0  0
 10 16  1  0  0  0  0
 10 31  1  0  0  0  0
 10 32  1  0  0  0  0
M  END
$$$$
DrugBank_5449
 OpenBabel01151909533D

 31 30  0  0  1  0  0  0  0  0999 V2000
   -1.4306   -1.6837   -2.4214 C   0  0  0  0  0  0  0  0  0  0  0  0
   -1.6177   -3.1785    3.2690 C   0  0  0  0  0  0  0  0  0  0  0  0
   -1.4721   -0.9461   -1.0919 C   0  0  0  0  0  0  0  0  0  0  0  0
   -2.9992   -2.9730    2.6630 C   0  0  0  0  0  0  0  0  0  0  0  0
   -2.4099   -1.5901   -0.0672 C   0  0  0  0  0  0  0  0  0  0  0  0
   -2.4272   -0.8573    1.2783 C   0  0  0  0  0  0  0  0  0  0  0  0
   -3.4184   -0.6168    3.5755 C   0  0  0  0  0  0  0  0  0  0  0  0
   -3.3566   -1.5083    2.3244 C   0  0  2  0  0  0  0  0  0  0  0  0
   -3.4492   -0.3443    6.6367 O   0  0  0  0  0  0  0  0  0  0  0  0
   -5.3295    0.9644    5.5984 O   0  0  0  0  0  0  0  0  0  0  0  0
   -5.7640   -1.2575    6.6458 O   0  0  0  0  0  0  0  0  0  0  0  0
   -4.4210   -1.0872    4.4660 O   0  0  0  0  0  0  0  0  0  0  0  0
   -4.6851   -0.3054    5.8773 S   0  0  0  0  0  0  0  0  0  0  0  0
   -1.0959   -2.7147   -2.2684 H   0  0  0  0  0  0  0  0  0  0  0  0
   -2.4185   -1.7226   -2.8895 H   0  0  0  0  0  0  0  0  0  0  0  0
   -0.7360   -1.2017   -3.1166 H   0  0  0  0  0  0  0  0  0  0  0  0
   -1.4840   -2.5859    4.1784 H   0  0  0  0  0  0  0  0  0  0  0  0
   -0.8491   -2.8640    2.5551 H   0  0  0  0  0  0  0  0  0  0  0  0
   -1.4350   -4.2300    3.5077 H   0  0  0  0  0  0  0  0  0  0  0  0
   -1.8096    0.0814   -1.2737 H   0  0  0  0  0  0  0  0  0  0  0  0
   -0.4585   -0.8779   -0.6803 H   0  0  0  0  0  0  0  0  0  0  0  0
   -3.0799   -3.5868    1.7583 H   0  0  0  0  0  0  0  0  0  0  0  0
   -3.7461   -3.3783    3.3567 H   0  0  0  0  0  0  0  0  0  0  0  0
   -3.4236   -1.5961   -0.4861 H   0  0  0  0  0  0  0  0  0  0  0  0
   -2.1161   -2.6362    0.0744 H   0  0  0  0  0  0  0  0  0  0  0  0
   -2.7629    0.1741    1.1091 H   0  0  0  0  0  0  0  0  0  0  0  0
   -1.4100   -0.7877    1.6802 H   0  0  0  0  0  0  0  0  0  0  0  0
   -3.6736    0.4113    3.2968 H   0  0  0  0  0  0  0  0  0  0  0  0
   -2.4603   -0.5980    4.1043 H   0  0  0  0  0  0  0  0  0  0  0  0
   -4.3712   -1.5373    1.9025 H   0  0  0  0  0  0  0  0  0  0  0  0
   -6.5914   -1.4541    6.1477 H   0  0  0  0  0  0  0  0  0  0  0  0
  1  3  1  0  0  0  0
  1 14  1  0  0  0  0
  1 15  1  0  0  0  0
  1 16  1  0  0  0  0
  2  4  1  0  0  0  0
  2 17  1  0  0  0  0
  2 18  1  0  0  0  0
  2 19  1  0  0  0  0
  3  5  1  0  0  0  0
  3 20  1  0  0  0  0
  3 21  1  0  0  0  0
  4  8  1  0  0  0  0
  4 22  1  0  0  0  0
  4 23  1  0  0  0  0
  5  6  1  0  0  0  0
  5 24  1  0  0  0  0
  5 25  1  0  0  0  0
  6  8  1  0  0  0  0
  6 26  1  0  0  0  0
  6 27  1  0  0  0  0
  7  8  1  0  0  0  0
  7 12  1  0  0  0  0
  7 28  1  0  0  0  0
  7 29  1  0  0  0  0
  8 30  1  6  0  0  0
  9 13  2  0  0  0  0
 10 13  2  0  0  0  0
 11 13  1  0  0  0  0
 11 31  1  0  0  0  0
 12 13  1  0  0  0  0
M  END
$$$$
DrugBank_5451
 OpenBabel01151909533D

 58 60  0  0  1  0  0  0  0  0999 V2000
   -3.6100    5.0029    1.2367 C   0  0  0  0  0  0  0  0  0  0  0  0
   -5.8928    4.2366    1.4338 C   0  0  0  0  0  0  0  0  0  0  0  0
   -3.7481    5.7200    2.4250 C   0  0  0  0  0  0  0  0  0  0  0  0
   -6.0308    4.9537    2.6223 C   0  0  0  0  0  0  0  0  0  0  0  0
   -4.6824    4.2612    0.7410 C   0  0  0  0  0  0  0  0  0  0  0  0
   -4.9585    5.6954    3.1179 C   0  0  0  0  0  0  0  0  0  0  0  0
   -1.5154    1.5249    0.3385 C   0  0  0  0  0  0  0  0  0  0  0  0
    0.9912    0.9754    2.2401 C   0  0  0  0  0  0  0  0  0  0  0  0
    0.7019    2.0433    3.2508 C   0  0  0  0  0  0  0  0  0  0  0  0
   -6.0441   -1.3849   -1.0989 C   0  0  0  0  0  0  0  0  0  0  0  0
   -3.9071   -2.5887   -1.2869 C   0  0  0  0  0  0  0  0  0  0  0  0
   -6.7142   -2.5750   -1.7711 C   0  0  0  0  0  0  0  0  0  0  0  0
   -4.6670   -3.7280   -1.9516 C   0  0  0  0  0  0  0  0  0  0  0  0
    0.3626    2.2779    1.7948 C   0  0  0  0  0  0  0  0  0  0  0  0
    1.2271    3.2396    1.0258 C   0  0  0  0  0  0  0  0  0  0  0  0
   -3.7006    0.5385   -0.5010 C   0  0  0  0  0  0  0  0  0  0  0  0
   -4.5330    3.4823   -0.5479 C   0  0  1  0  0  0  0  0  0  0  0  0
   -3.0079    1.7507    0.1123 C   0  0  2  0  0  0  0  0  0  0  0  0
   -4.9155    4.3049   -1.7695 C   0  0  0  0  0  0  0  0  0  0  0  0
   -4.8346   -1.8653   -0.3686 N   0  0  0  0  0  0  0  0  0  0  0  0
    0.6759    4.5605    1.0704 N   0  0  0  0  0  0  0  0  0  0  0  0
   -1.0253    2.2829    1.3922 N   0  0  0  0  0  0  0  0  0  0  0  0
   -3.1835    2.9366   -0.6870 N   0  0  0  0  0  0  0  0  0  0  0  0
   -0.8405    0.7743   -0.3632 O   0  0  0  0  0  0  0  0  0  0  0  0
   -2.8564   -1.2773    1.1776 O   0  0  0  0  0  0  0  0  0  0  0  0
   -5.1045   -0.1947    1.5772 O   0  0  0  0  0  0  0  0  0  0  0  0
   -5.8006   -3.2220   -2.6599 O   0  0  0  0  0  0  0  0  0  0  0  0
   -5.0904    6.3818    4.2605 F   0  0  0  0  0  0  0  0  0  0  0  0
   -6.2062    4.7039   -1.6910 F   0  0  0  0  0  0  0  0  0  0  0  0
   -4.1588    5.4215   -1.8623 F   0  0  0  0  0  0  0  0  0  0  0  0
   -4.7732    3.6125   -2.9194 F   0  0  0  0  0  0  0  0  0  0  0  0
   -4.0991   -0.7218    0.6719 S   0  0  0  0  0  0  0  0  0  0  0  0
   -2.6633    5.0288    0.7035 H   0  0  0  0  0  0  0  0  0  0  0  0
   -6.7337    3.6613    1.0554 H   0  0  0  0  0  0  0  0  0  0  0  0
   -2.9132    6.2969    2.8114 H   0  0  0  0  0  0  0  0  0  0  0  0
   -6.9731    4.9351    3.1617 H   0  0  0  0  0  0  0  0  0  0  0  0
    2.0282    0.7863    1.9894 H   0  0  0  0  0  0  0  0  0  0  0  0
    0.3736    0.0849    2.2595 H   0  0  0  0  0  0  0  0  0  0  0  0
   -0.1095    1.8689    3.9478 H   0  0  0  0  0  0  0  0  0  0  0  0
    1.5444    2.5726    3.6799 H   0  0  0  0  0  0  0  0  0  0  0  0
   -5.7373   -0.6455   -1.8476 H   0  0  0  0  0  0  0  0  0  0  0  0
   -6.7416   -0.9180   -0.3963 H   0  0  0  0  0  0  0  0  0  0  0  0
   -3.0617   -2.9913   -0.7201 H   0  0  0  0  0  0  0  0  0  0  0  0
   -3.5339   -1.8865   -2.0413 H   0  0  0  0  0  0  0  0  0  0  0  0
   -7.0789   -3.3009   -1.0344 H   0  0  0  0  0  0  0  0  0  0  0  0
   -7.5722   -2.2376   -2.3609 H   0  0  0  0  0  0  0  0  0  0  0  0
   -4.0214   -4.2370   -2.6741 H   0  0  0  0  0  0  0  0  0  0  0  0
   -5.0003   -4.4719   -1.2181 H   0  0  0  0  0  0  0  0  0  0  0  0
    1.2896    2.9285   -0.0164 H   0  0  0  0  0  0  0  0  0  0  0  0
    2.2271    3.2706    1.4565 H   0  0  0  0  0  0  0  0  0  0  0  0
   -4.6467    0.8279   -0.9705 H   0  0  0  0  0  0  0  0  0  0  0  0
   -3.0731    0.0608   -1.2598 H   0  0  0  0  0  0  0  0  0  0  0  0
   -5.1904    2.6051   -0.5149 H   0  0  0  0  0  0  0  0  0  0  0  0
   -3.4688    1.9742    1.0818 H   0  0  0  0  0  0  0  0  0  0  0  0
   -0.3267    4.6825    1.0359 H   0  0  0  0  0  0  0  0  0  0  0  0
    1.2819    5.3572    0.9309 H   0  0  0  0  0  0  0  0  0  0  0  0
   -1.6746    2.8709    1.9063 H   0  0  0  0  0  0  0  0  0  0  0  0
   -3.0205    2.7212   -1.6757 H   0  0  0  0  0  0  0  0  0  0  0  0
  1  3  2  0  0  0  0
  1  5  1  0  0  0  0
  1 33  1  0  0  0  0
  2  4  1  0  0  0  0
  2  5  2  0  0  0  0
  2 34  1  0  0  0  0
  3  6  1  0  0  0  0
  3 35  1  0  0  0  0
  4  6  2  0  0  0  0
  4 36  1  0  0  0  0
  5 17  1  0  0  0  0
  6 28  1  0  0  0  0
  7 18  1  0  0  0  0
  7 22  1  0  0  0  0
  7 24  2  0  0  0  0
  8  9  1  0  0  0  0
  8 14  1  0  0  0  0
  8 37  1  0  0  0  0
  8 38  1  0  0  0  0
  9 14  1  0  0  0  0
  9 39  1  0  0  0  0
  9 40  1  0  0  0  0
 10 12  1  0  0  0  0
 10 20  1  0  0  0  0
 10 41  1  0  0  0  0
 10 42  1  0  0  0  0
 11 13  1  0  0  0  0
 11 20  1  0  0  0  0
 11 43  1  0  0  0  0
 11 44  1  0  0  0  0
 12 27  1  0  0  0  0
 12 45  1  0  0  0  0
 12 46  1  0  0  0  0
 13 27  1  0  0  0  0
 13 47  1  0  0  0  0
 13 48  1  0  0  0  0
 14 15  1  0  0  0  0
 14 22  1  0  0  0  0
 15 21  1  0  0  0  0
 15 49  1  0  0  0  0
 15 50  1  0  0  0  0
 16 18  1  0  0  0  0
 16 32  1  0  0  0  0
 16 51  1  0  0  0  0
 16 52  1  0  0  0  0
 17 19  1  0  0  0  0
 17 23  1  0  0  0  0
 17 53  1  1  0  0  0
 18 23  1  0  0  0  0
 18 54  1  1  0  0  0
 19 29  1  0  0  0  0
 19 30  1  0  0  0  0
 19 31  1  0  0  0  0
 20 32  1  0  0  0  0
 21 55  1  0  0  0  0
 21 56  1  0  0  0  0
 22 57  1  0  0  0  0
 23 58  1  0  0  0  0
 25 32  2  0  0  0  0
 26 32  2  0  0  0  0
M  END
$$$$
DrugBank_152
 OpenBabel01151909533D

 13 13  0  0  1  0  0  0  0  0999 V2000
   -0.1392   -0.7897    0.2238 C   0  0  0  0  0  0  0  0  0  0  0  0
    0.5333    1.3507   -0.3782 C   0  0  0  0  0  0  0  0  0  0  0  0
   -0.6558    0.6151    0.2084 C   0  0  1  0  0  0  0  0  0  0  0  0
    1.2368   -0.7070    0.1755 N   0  0  0  0  0  0  0  0  0  0  0  0
   -1.8376    0.7048   -0.6250 N   0  0  0  0  0  0  0  0  0  0  0  0
   -0.8111   -1.8074    0.2954 O   0  0  0  0  0  0  0  0  0  0  0  0
    1.6737    0.6335    0.1002 O   0  0  0  0  0  0  0  0  0  0  0  0
    0.5543    1.3338   -1.4748 H   0  0  0  0  0  0  0  0  0  0  0  0
    0.5807    2.3914   -0.0438 H   0  0  0  0  0  0  0  0  0  0  0  0
   -0.8571    0.9213    1.2341 H   0  0  0  0  0  0  0  0  0  0  0  0
    1.8559   -1.5073    0.1921 H   0  0  0  0  0  0  0  0  0  0  0  0
   -2.0758    1.5918   -1.0255 H   0  0  0  0  0  0  0  0  0  0  0  0
   -2.4900   -0.0556   -0.6151 H   0  0  0  0  0  0  0  0  0  0  0  0
  1  3  1  0  0  0  0
  1  4  1  0  0  0  0
  1  6  2  0  0  0  0
  2  3  1  0  0  0  0
  2  7  1  0  0  0  0
  2  8  1  0  0  0  0
  2  9  1  0  0  0  0
  3  5  1  0  0  0  0
  3 10  1  1  0  0  0
  4  7  1  0  0  0  0
  4 11  1  0  0  0  0
  5 12  1  0  0  0  0
  5 13  1  0  0  0  0
M  END
$$$$
DrugBank_165
 OpenBabel01151909533D

 43 45  0  0  1  0  0  0  0  0999 V2000
   -1.1318    1.0295    1.1652 C   0  0  0  0  0  0  0  0  0  0  0  0
   -1.3079   -0.4586    0.8908 C   0  0  2  0  0  0  0  0  0  0  0  0
   -0.5383   -0.9324   -0.3233 C   0  0  2  0  0  0  0  0  0  0  0  0
    0.8316   -0.3027   -0.4762 C   0  0  1  0  0  0  0  0  0  0  0  0
    0.9457    1.1485   -0.0251 C   0  0  1  0  0  0  0  0  0  0  0  0
   -2.7263   -0.7825   -0.8716 C   0  0  0  0  0  0  0  0  0  0  0  0
    2.8081   -0.0161    0.6084 C   0  0  0  0  0  0  0  0  0  0  0  0
   -3.2418   -2.1601   -1.2828 C   0  0  0  0  0  0  0  0  0  0  0  0
   -3.6455    0.3107   -1.4008 C   0  0  0  0  0  0  0  0  0  0  0  0
    3.1596   -0.0021    2.0904 C   0  0  0  0  0  0  0  0  0  0  0  0
    4.0176   -0.3929   -0.2392 C   0  0  0  0  0  0  0  0  0  0  0  0
    0.5507    2.1604   -1.0946 C   0  0  0  0  0  0  0  0  0  0  0  0
    0.6341    6.1034   -0.4445 N   0  0  0  0  0  0  0  0  0  0  0  0
    1.2771    4.8269   -2.5784 O   0  0  0  0  0  0  0  0  0  0  0  0
   -1.0943    4.7355   -1.7475 O   0  0  0  0  0  0  0  0  0  0  0  0
    0.2413    1.3913    1.1971 O   0  0  0  0  0  0  0  0  0  0  0  0
   -2.6756   -0.7260    0.5650 O   0  0  0  0  0  0  0  0  0  0  0  0
   -1.4066   -0.5843   -1.4043 O   0  0  0  0  0  0  0  0  0  0  0  0
    1.7594   -0.9703    0.3925 O   0  0  0  0  0  0  0  0  0  0  0  0
    2.3598    1.2875    0.2085 O   0  0  0  0  0  0  0  0  0  0  0  0
    0.6872    3.4633   -0.5563 O   0  0  0  0  0  0  0  0  0  0  0  0
    0.3318    4.7693   -1.4783 S   0  0  0  0  0  0  0  0  0  0  0  0
   -1.6711    1.6595    0.4519 H   0  0  0  0  0  0  0  0  0  0  0  0
   -1.5653    1.2675    2.1433 H   0  0  0  0  0  0  0  0  0  0  0  0
   -1.0166   -1.0302    1.7790 H   0  0  0  0  0  0  0  0  0  0  0  0
   -0.4502   -2.0266   -0.3080 H   0  0  0  0  0  0  0  0  0  0  0  0
    1.1996   -0.4251   -1.5030 H   0  0  0  0  0  0  0  0  0  0  0  0
   -2.5772   -2.9325   -0.8992 H   0  0  0  0  0  0  0  0  0  0  0  0
   -3.2811   -2.2305   -2.3686 H   0  0  0  0  0  0  0  0  0  0  0  0
   -4.2407   -2.3161   -0.8787 H   0  0  0  0  0  0  0  0  0  0  0  0
   -3.2705    1.2901   -1.1030 H   0  0  0  0  0  0  0  0  0  0  0  0
   -4.6505    0.1800   -0.9991 H   0  0  0  0  0  0  0  0  0  0  0  0
   -3.6910    0.2655   -2.4891 H   0  0  0  0  0  0  0  0  0  0  0  0
    2.2832    0.2692    2.6793 H   0  0  0  0  0  0  0  0  0  0  0  0
    3.9508    0.7237    2.2794 H   0  0  0  0  0  0  0  0  0  0  0  0
    3.5032   -0.9888    2.4018 H   0  0  0  0  0  0  0  0  0  0  0  0
    3.7456   -0.3972   -1.2945 H   0  0  0  0  0  0  0  0  0  0  0  0
    4.3725   -1.3849    0.0392 H   0  0  0  0  0  0  0  0  0  0  0  0
    4.8204    0.3275   -0.0831 H   0  0  0  0  0  0  0  0  0  0  0  0
   -0.4858    2.0019   -1.3938 H   0  0  0  0  0  0  0  0  0  0  0  0
    1.2028    2.0600   -1.9628 H   0  0  0  0  0  0  0  0  0  0  0  0
    1.5172    6.0881    0.0817 H   0  0  0  0  0  0  0  0  0  0  0  0
    0.4142    7.0359   -0.8171 H   0  0  0  0  0  0  0  0  0  0  0  0
  1  2  1  0  0  0  0
  1 16  1  0  0  0  0
  1 23  1  0  0  0  0
  1 24  1  0  0  0  0
  2  3  1  6  0  0  0
  2 17  1  0  0  0  0
  2 25  1  0  0  0  0
  3  4  1  6  0  0  0
  3 18  1  0  0  0  0
  3 26  1  0  0  0  0
  4  5  1  1  0  0  0
  4 19  1  0  0  0  0
  4 27  1  0  0  0  0
  5 12  1  6  0  0  0
  5 16  1  0  0  0  0
  5 20  1  0  0  0  0
  6  8  1  0  0  0  0
  6  9  1  0  0  0  0
  6 17  1  0  0  0  0
  6 18  1  0  0  0  0
  7 10  1  0  0  0  0
  7 11  1  0  0  0  0
  7 19  1  0  0  0  0
  7 20  1  0  0  0  0
  8 28  1  0  0  0  0
  8 29  1  0  0  0  0
  8 30  1  0  0  0  0
  9 31  1  0  0  0  0
  9 32  1  0  0  0  0
  9 33  1  0  0  0  0
 10 34  1  0  0  0  0
 10 35  1  0  0  0  0
 10 36  1  0  0  0  0
 11 37  1  0  0  0  0
 11 38  1  0  0  0  0
 11 39  1  0  0  0  0
 12 21  1  0  0  0  0
 12 40  1  0  0  0  0
 12 41  1  0  0  0  0
 13 22  1  0  0  0  0
 13 42  1  0  0  0  0
 13 43  1  0  0  0  0
 14 22  2  0  0  0  0
 15 22  2  0  0  0  0
 21 22  1  0  0  0  0
M  END
$$$$
DrugBank_178
 OpenBabel01151909533D

 45 48  0  0  1  0  0  0  0  0999 V2000
   -1.9269   -0.1803    0.9467 C   0  0  0  0  0  0  0  0  0  0  0  0
   -0.7191    0.4635    0.6693 C   0  0  0  0  0  0  0  0  0  0  0  0
   -1.3722    2.2905    2.0886 C   0  0  0  0  0  0  0  0  0  0  0  0
   -2.8751    0.3890    1.8150 C   0  0  0  0  0  0  0  0  0  0  0  0
   -2.5958    1.6575    2.3697 C   0  0  0  0  0  0  0  0  0  0  0  0
   -0.4392    1.6966    1.2436 C   0  0  0  0  0  0  0  0  0  0  0  0
   -7.5416   -2.2886    4.0062 C   0  0  0  0  0  0  0  0  0  0  0  0
   -3.5467    2.3541    3.3125 C   0  0  0  0  0  0  0  0  0  0  0  0
   -8.2489   -1.1053    4.6454 C   0  0  0  0  0  0  0  0  0  0  0  0
   -4.9507    1.7565    3.3354 C   0  0  0  0  0  0  0  0  0  0  0  0
   -7.1491   -0.0344    4.7031 C   0  0  0  0  0  0  0  0  0  0  0  0
   -4.1795   -1.8473    2.0454 C   0  0  0  0  0  0  0  0  0  0  0  0
   -5.5269   -2.5101    2.3932 C   0  0  0  0  0  0  0  0  0  0  0  0
   -4.2135   -0.2943    2.0809 C   0  0  1  0  0  0  0  0  0  0  0  0
   -4.8640    0.2310    3.3984 C   0  0  2  0  0  0  0  0  0  0  0  0
   -6.2294   -0.4358    3.5558 C   0  0  1  0  0  0  0  0  0  0  0  0
   -6.0903   -1.9657    3.7013 C   0  0  1  0  0  0  0  0  0  0  0  0
   -5.2692   -2.4593    4.9069 C   0  0  0  0  0  0  0  0  0  0  0  0
    2.0515    1.0684    2.6166 O   0  0  0  0  0  0  0  0  0  0  0  0
   -8.0749   -3.3695    3.7938 O   0  0  0  0  0  0  0  0  0  0  0  0
    3.1159    2.8635    1.3350 O   0  0  0  0  0  0  0  0  0  0  0  0
    2.4831    0.7537    0.2267 O   0  0  0  0  0  0  0  0  0  0  0  0
    0.7382    2.3235    0.9776 O   0  0  0  0  0  0  0  0  0  0  0  0
    2.2270    1.7023    1.3100 S   0  0  0  0  0  0  0  0  0  0  0  0
   -2.1104   -1.1342    0.4614 H   0  0  0  0  0  0  0  0  0  0  0  0
   -0.0036   -0.0053   -0.0011 H   0  0  0  0  0  0  0  0  0  0  0  0
   -1.1490    3.2578    2.5343 H   0  0  0  0  0  0  0  0  0  0  0  0
   -3.1192    2.2986    4.3219 H   0  0  0  0  0  0  0  0  0  0  0  0
   -3.6229    3.4152    3.0458 H   0  0  0  0  0  0  0  0  0  0  0  0
   -9.0702   -0.7916    3.9947 H   0  0  0  0  0  0  0  0  0  0  0  0
   -8.6160   -1.3589    5.6420 H   0  0  0  0  0  0  0  0  0  0  0  0
   -5.4914    2.1600    4.1985 H   0  0  0  0  0  0  0  0  0  0  0  0
   -5.5033    2.0655    2.4388 H   0  0  0  0  0  0  0  0  0  0  0  0
   -7.5713    0.9670    4.5742 H   0  0  0  0  0  0  0  0  0  0  0  0
   -6.6283   -0.0551    5.6664 H   0  0  0  0  0  0  0  0  0  0  0  0
   -3.4019   -2.2133    2.7274 H   0  0  0  0  0  0  0  0  0  0  0  0
   -3.8979   -2.1967    1.0453 H   0  0  0  0  0  0  0  0  0  0  0  0
   -6.2365   -2.3328    1.5742 H   0  0  0  0  0  0  0  0  0  0  0  0
   -5.3989   -3.5981    2.4477 H   0  0  0  0  0  0  0  0  0  0  0  0
   -4.8602    0.0164    1.2454 H   0  0  0  0  0  0  0  0  0  0  0  0
   -4.2272   -0.0285    4.2541 H   0  0  0  0  0  0  0  0  0  0  0  0
   -6.7976   -0.2184    2.6346 H   0  0  0  0  0  0  0  0  0  0  0  0
   -4.2195   -2.2489    4.7335 H   0  0  0  0  0  0  0  0  0  0  0  0
   -5.4143   -3.5277    5.0236 H   0  0  0  0  0  0  0  0  0  0  0  0
   -5.6035   -1.9441    5.8008 H   0  0  0  0  0  0  0  0  0  0  0  0
  1  2  2  0  0  0  0
  1  4  1  0  0  0  0
  1 25  1  0  0  0  0
  2  6  1  0  0  0  0
  2 26  1  0  0  0  0
  3  5  1  0  0  0  0
  3  6  2  0  0  0  0
  3 27  1  0  0  0  0
  4  5  2  0  0  0  0
  4 14  1  0  0  0  0
  5  8  1  0  0  0  0
  6 23  1  0  0  0  0
  7  9  1  0  0  0  0
  7 17  1  0  0  0  0
  7 20  2  0  0  0  0
  8 10  1  0  0  0  0
  8 28  1  0  0  0  0
  8 29  1  0  0  0  0
  9 11  1  0  0  0  0
  9 30  1  0  0  0  0
  9 31  1  0  0  0  0
 10 15  1  0  0  0  0
 10 32  1  0  0  0  0
 10 33  1  0  0  0  0
 11 16  1  0  0  0  0
 11 34  1  0  0  0  0
 11 35  1  0  0  0  0
 12 13  1  0  0  0  0
 12 14  1  0  0  0  0
 12 36  1  0  0  0  0
 12 37  1  0  0  0  0
 13 17  1  0  0  0  0
 13 38  1  0  0  0  0
 13 39  1  0  0  0  0
 14 15  1  1  0  0  0
 14 40  1  0  0  0  0
 15 16  1  1  0  0  0
 15 41  1  0  0  0  0
 16 17  1  1  0  0  0
 16 42  1  0  0  0  0
 17 18  1  1  0  0  0
 18 43  1  0  0  0  0
 18 44  1  0  0  0  0
 18 45  1  0  0  0  0
 19 24  1  0  0  0  0
 21 24  2  0  0  0  0
 22 24  2  0  0  0  0
 23 24  1  0  0  0  0
M  END
$$$$
DrugBank_5514
 OpenBabel01151909533D

 55 57  0  0  1  0  0  0  0  0999 V2000
    7.3281   -0.8995   -1.6347 C   0  0  0  0  0  0  0  0  0  0  0  0
    2.0649   -0.3778   -4.6268 C   0  0  0  0  0  0  0  0  0  0  0  0
    0.2567    0.8058   -3.5468 C   0  0  0  0  0  0  0  0  0  0  0  0
    2.2283    0.6838   -5.5167 C   0  0  0  0  0  0  0  0  0  0  0  0
    0.4201    1.8674   -4.4366 C   0  0  0  0  0  0  0  0  0  0  0  0
    1.0791   -0.3168   -3.6419 C   0  0  0  0  0  0  0  0  0  0  0  0
    1.4059    1.8065   -5.4216 C   0  0  0  0  0  0  0  0  0  0  0  0
    0.2677    1.8548    4.0654 C   0  0  0  0  0  0  0  0  0  0  0  0
    4.3851   -1.6851   -1.4333 C   0  0  0  0  0  0  0  0  0  0  0  0
    0.0949    0.6537    4.9622 C   0  0  0  0  0  0  0  0  0  0  0  0
    1.5088    0.0853    5.0524 C   0  0  0  0  0  0  0  0  0  0  0  0
    6.8688   -2.3260   -3.6610 C   0  0  0  0  0  0  0  0  0  0  0  0
    6.9695   -0.9071   -4.1293 C   0  0  0  0  0  0  0  0  0  0  0  0
    2.1493    0.4672    3.7236 C   0  0  1  0  0  0  0  0  0  0  0  0
    6.4544   -1.2013   -2.7365 C   0  0  0  0  0  0  0  0  0  0  0  0
    1.9434   -0.5893    2.6463 C   0  0  0  0  0  0  0  0  0  0  0  0
    2.3234   -1.4601    0.0337 C   0  0  0  0  0  0  0  0  0  0  0  0
    0.9018   -1.4680   -2.6756 C   0  0  1  0  0  0  0  0  0  0  0  0
    2.9074   -1.3086   -1.3669 C   0  0  2  0  0  0  0  0  0  0  0  0
   -0.0849   -2.5071   -3.1872 C   0  0  0  0  0  0  0  0  0  0  0  0
    8.0329   -0.6562   -0.7457 N   0  0  0  0  0  0  0  0  0  0  0  0
    1.4715    1.6949    3.3871 N   0  0  0  0  0  0  0  0  0  0  0  0
    5.0536   -1.0048   -2.4409 N   0  0  0  0  0  0  0  0  0  0  0  0
    2.1847   -2.0854   -2.3418 N   0  0  0  0  0  0  0  0  0  0  0  0
   -0.5329    2.7694    3.9464 O   0  0  0  0  0  0  0  0  0  0  0  0
    4.8951   -2.5189   -0.6877 O   0  0  0  0  0  0  0  0  0  0  0  0
    4.1248   -0.0582    1.3075 O   0  0  0  0  0  0  0  0  0  0  0  0
    1.9697    1.0624    0.6205 O   0  0  0  0  0  0  0  0  0  0  0  0
    1.5645    2.8272   -6.2744 F   0  0  0  0  0  0  0  0  0  0  0  0
   -1.3050   -1.9534   -3.3774 F   0  0  0  0  0  0  0  0  0  0  0  0
    0.3121   -3.0131   -4.3765 F   0  0  0  0  0  0  0  0  0  0  0  0
   -0.2355   -3.5380   -2.3290 F   0  0  0  0  0  0  0  0  0  0  0  0
    2.6870   -0.1035    1.1062 S   0  0  0  0  0  0  0  0  0  0  0  0
    2.7100   -1.2486   -4.7093 H   0  0  0  0  0  0  0  0  0  0  0  0
   -0.5139    0.8622   -2.7824 H   0  0  0  0  0  0  0  0  0  0  0  0
    2.9961    0.6369   -6.2831 H   0  0  0  0  0  0  0  0  0  0  0  0
   -0.2203    2.7414   -4.3631 H   0  0  0  0  0  0  0  0  0  0  0  0
   -0.2878    0.9489    5.9421 H   0  0  0  0  0  0  0  0  0  0  0  0
   -0.5939   -0.0502    4.4853 H   0  0  0  0  0  0  0  0  0  0  0  0
    2.0412    0.5856    5.8718 H   0  0  0  0  0  0  0  0  0  0  0  0
    1.5213   -0.9894    5.2570 H   0  0  0  0  0  0  0  0  0  0  0  0
    6.0939   -2.9451   -4.0988 H   0  0  0  0  0  0  0  0  0  0  0  0
    7.7931   -2.8566   -3.4628 H   0  0  0  0  0  0  0  0  0  0  0  0
    7.9614   -0.4854   -4.2454 H   0  0  0  0  0  0  0  0  0  0  0  0
    6.2621   -0.5754   -4.8809 H   0  0  0  0  0  0  0  0  0  0  0  0
    3.2173    0.6732    3.8397 H   0  0  0  0  0  0  0  0  0  0  0  0
    0.8790   -0.7497    2.4538 H   0  0  0  0  0  0  0  0  0  0  0  0
    2.3980   -1.5398    2.9382 H   0  0  0  0  0  0  0  0  0  0  0  0
    1.2315   -1.5326   -0.0064 H   0  0  0  0  0  0  0  0  0  0  0  0
    2.7086   -2.3546    0.5330 H   0  0  0  0  0  0  0  0  0  0  0  0
    0.5183   -1.0812   -1.7237 H   0  0  0  0  0  0  0  0  0  0  0  0
    2.8080   -0.2641   -1.6854 H   0  0  0  0  0  0  0  0  0  0  0  0
    1.8195    2.3605    2.7042 H   0  0  0  0  0  0  0  0  0  0  0  0
    4.5322   -0.3350   -2.9987 H   0  0  0  0  0  0  0  0  0  0  0  0
    2.0072   -3.0273   -1.9788 H   0  0  0  0  0  0  0  0  0  0  0  0
  1 15  1  0  0  0  0
  1 21  3  0  0  0  0
  2  4  2  0  0  0  0
  2  6  1  0  0  0  0
  2 34  1  0  0  0  0
  3  5  1  0  0  0  0
  3  6  2  0  0  0  0
  3 35  1  0  0  0  0
  4  7  1  0  0  0  0
  4 36  1  0  0  0  0
  5  7  2  0  0  0  0
  5 37  1  0  0  0  0
  6 18  1  0  0  0  0
  7 29  1  0  0  0  0
  8 10  1  0  0  0  0
  8 22  1  0  0  0  0
  8 25  2  0  0  0  0
  9 19  1  0  0  0  0
  9 23  1  0  0  0  0
  9 26  2  0  0  0  0
 10 11  1  0  0  0  0
 10 38  1  0  0  0  0
 10 39  1  0  0  0  0
 11 14  1  0  0  0  0
 11 40  1  0  0  0  0
 11 41  1  0  0  0  0
 12 13  1  0  0  0  0
 12 15  1  0  0  0  0
 12 42  1  0  0  0  0
 12 43  1  0  0  0  0
 13 15  1  0  0  0  0
 13 44  1  0  0  0  0
 13 45  1  0  0  0  0
 14 16  1  0  0  0  0
 14 22  1  0  0  0  0
 14 46  1  1  0  0  0
 15 23  1  0  0  0  0
 16 33  1  0  0  0  0
 16 47  1  0  0  0  0
 16 48  1  0  0  0  0
 17 19  1  0  0  0  0
 17 33  1  0  0  0  0
 17 49  1  0  0  0  0
 17 50  1  0  0  0  0
 18 20  1  0  0  0  0
 18 24  1  0  0  0  0
 18 51  1  1  0  0  0
 19 24  1  0  0  0  0
 19 52  1  6  0  0  0
 20 30  1  0  0  0  0
 20 31  1  0  0  0  0
 20 32  1  0  0  0  0
 22 53  1  0  0  0  0
 23 54  1  0  0  0  0
 24 55  1  0  0  0  0
 27 33  2  0  0  0  0
 28 33  2  0  0  0  0
M  END
$$$$
DrugBank_5516
 OpenBabel01151909533D

 59 61  0  0  1  0  0  0  0  0999 V2000
   -3.7030   -0.9181    9.3246 C   0  0  0  0  0  0  0  0  0  0  0  0
   -4.0452   -2.0751    8.6248 C   0  0  0  0  0  0  0  0  0  0  0  0
   -2.4045   -0.4144    9.2471 C   0  0  0  0  0  0  0  0  0  0  0  0
   -3.0890   -2.7286    7.8476 C   0  0  0  0  0  0  0  0  0  0  0  0
   -1.4482   -1.0679    8.4698 C   0  0  0  0  0  0  0  0  0  0  0  0
   -2.5666   -5.5245    1.5913 C   0  0  0  0  0  0  0  0  0  0  0  0
   -0.9385   -5.5123   -0.1937 C   0  0  0  0  0  0  0  0  0  0  0  0
   -3.5964   -5.4660    0.6525 C   0  0  0  0  0  0  0  0  0  0  0  0
   -1.9684   -5.4539   -1.1326 C   0  0  0  0  0  0  0  0  0  0  0  0
   -1.7904   -2.2250    7.7701 C   0  0  0  0  0  0  0  0  0  0  0  0
   -1.2376   -5.5476    1.1683 C   0  0  0  0  0  0  0  0  0  0  0  0
   -3.2974   -5.4307   -0.7095 C   0  0  0  0  0  0  0  0  0  0  0  0
    0.6697   -1.9968    2.3656 C   0  0  0  0  0  0  0  0  0  0  0  0
    0.4093    0.9730    1.2195 C   0  0  0  0  0  0  0  0  0  0  0  0
   -0.5352    0.6629    0.0981 C   0  0  0  0  0  0  0  0  0  0  0  0
    0.5126   -0.3531    0.4978 C   0  0  0  0  0  0  0  0  0  0  0  0
   -0.7632   -2.9263    6.9359 C   0  0  0  0  0  0  0  0  0  0  0  0
    1.6800   -0.5498   -0.4308 C   0  0  0  0  0  0  0  0  0  0  0  0
    0.1301   -3.4734    4.3609 C   0  0  0  0  0  0  0  0  0  0  0  0
   -0.1200   -5.6117    2.1868 C   0  0  1  0  0  0  0  0  0  0  0  0
    0.0602   -3.3110    2.8462 C   0  0  2  0  0  0  0  0  0  0  0  0
    0.7406   -6.8560    2.0249 C   0  0  0  0  0  0  0  0  0  0  0  0
    1.4161   -1.6108   -1.3555 N   0  0  0  0  0  0  0  0  0  0  0  0
    0.0956   -1.5558    1.1819 N   0  0  0  0  0  0  0  0  0  0  0  0
    0.6998   -4.4013    2.1546 N   0  0  0  0  0  0  0  0  0  0  0  0
    1.5826   -1.4279    2.9606 O   0  0  0  0  0  0  0  0  0  0  0  0
   -0.9491   -1.1800    4.9998 O   0  0  0  0  0  0  0  0  0  0  0  0
   -2.4101   -3.2373    4.9301 O   0  0  0  0  0  0  0  0  0  0  0  0
   -4.3025   -5.3749   -1.6255 O   0  0  0  0  0  0  0  0  0  0  0  0
   -0.0047   -7.9749    2.1784 F   0  0  0  0  0  0  0  0  0  0  0  0
    1.2916   -6.9111    0.7914 F   0  0  0  0  0  0  0  0  0  0  0  0
    1.7427   -6.9077    2.9278 F   0  0  0  0  0  0  0  0  0  0  0  0
   -1.1386   -2.6018    5.2288 S   0  0  0  0  0  0  0  0  0  0  0  0
   -4.4481   -0.4086    9.9287 H   0  0  0  0  0  0  0  0  0  0  0  0
   -5.0565   -2.4668    8.6842 H   0  0  0  0  0  0  0  0  0  0  0  0
   -2.1380    0.4870    9.7909 H   0  0  0  0  0  0  0  0  0  0  0  0
   -3.3646   -3.6296    7.3059 H   0  0  0  0  0  0  0  0  0  0  0  0
   -0.4390   -0.6684    8.4155 H   0  0  0  0  0  0  0  0  0  0  0  0
   -2.8087   -5.5516    2.6503 H   0  0  0  0  0  0  0  0  0  0  0  0
    0.0942   -5.5299   -0.5325 H   0  0  0  0  0  0  0  0  0  0  0  0
   -4.6299   -5.4485    0.9883 H   0  0  0  0  0  0  0  0  0  0  0  0
   -1.7290   -5.4269   -2.1919 H   0  0  0  0  0  0  0  0  0  0  0  0
    1.1725    1.7216    1.0431 H   0  0  0  0  0  0  0  0  0  0  0  0
    0.0080    0.9823    2.2262 H   0  0  0  0  0  0  0  0  0  0  0  0
   -1.5697    0.4644    0.3531 H   0  0  0  0  0  0  0  0  0  0  0  0
   -0.4073    1.2029   -0.8325 H   0  0  0  0  0  0  0  0  0  0  0  0
   -0.7806   -4.0090    7.0889 H   0  0  0  0  0  0  0  0  0  0  0  0
    0.2477   -2.5609    7.1378 H   0  0  0  0  0  0  0  0  0  0  0  0
    2.5695   -0.8074    0.1429 H   0  0  0  0  0  0  0  0  0  0  0  0
    1.8646    0.3615   -0.9981 H   0  0  0  0  0  0  0  0  0  0  0  0
    0.0249   -4.5261    4.6440 H   0  0  0  0  0  0  0  0  0  0  0  0
    1.0803   -3.1043    4.7592 H   0  0  0  0  0  0  0  0  0  0  0  0
   -0.5537   -5.6324    3.1939 H   0  0  0  0  0  0  0  0  0  0  0  0
   -0.9900   -3.3340    2.5315 H   0  0  0  0  0  0  0  0  0  0  0  0
    0.9067   -2.4264   -1.0446 H   0  0  0  0  0  0  0  0  0  0  0  0
    1.9065   -1.6341   -2.2389 H   0  0  0  0  0  0  0  0  0  0  0  0
   -0.6553   -2.1060    0.7757 H   0  0  0  0  0  0  0  0  0  0  0  0
    1.6045   -4.6101    2.5887 H   0  0  0  0  0  0  0  0  0  0  0  0
   -3.9376   -5.3561   -2.5246 H   0  0  0  0  0  0  0  0  0  0  0  0
  1  2  2  0  0  0  0
  1  3  1  0  0  0  0
  1 34  1  0  0  0  0
  2  4  1  0  0  0  0
  2 35  1  0  0  0  0
  3  5  2  0  0  0  0
  3 36  1  0  0  0  0
  4 10  2  0  0  0  0
  4 37  1  0  0  0  0
  5 10  1  0  0  0  0
  5 38  1  0  0  0  0
  6  8  2  0  0  0  0
  6 11  1  0  0  0  0
  6 39  1  0  0  0  0
  7  9  1  0  0  0  0
  7 11  2  0  0  0  0
  7 40  1  0  0  0  0
  8 12  1  0  0  0  0
  8 41  1  0  0  0  0
  9 12  2  0  0  0  0
  9 42  1  0  0  0  0
 10 17  1  0  0  0  0
 11 20  1  0  0  0  0
 12 29  1  0  0  0  0
 13 21  1  0  0  0  0
 13 24  1  0  0  0  0
 13 26  2  0  0  0  0
 14 15  1  0  0  0  0
 14 16  1  0  0  0  0
 14 43  1  0  0  0  0
 14 44  1  0  0  0  0
 15 16  1  0  0  0  0
 15 45  1  0  0  0  0
 15 46  1  0  0  0  0
 16 18  1  0  0  0  0
 16 24  1  0  0  0  0
 17 33  1  0  0  0  0
 17 47  1  0  0  0  0
 17 48  1  0  0  0  0
 18 23  1  0  0  0  0
 18 49  1  0  0  0  0
 18 50  1  0  0  0  0
 19 21  1  0  0  0  0
 19 33  1  0  0  0  0
 19 51  1  0  0  0  0
 19 52  1  0  0  0  0
 20 22  1  0  0  0  0
 20 25  1  0  0  0  0
 20 53  1  1  0  0  0
 21 25  1  0  0  0  0
 21 54  1  6  0  0  0
 22 30  1  0  0  0  0
 22 31  1  0  0  0  0
 22 32  1  0  0  0  0
 23 55  1  0  0  0  0
 23 56  1  0  0  0  0
 24 57  1  0  0  0  0
 25 58  1  0  0  0  0
 27 33  2  0  0  0  0
 28 33  2  0  0  0  0
 29 59  1  0  0  0  0
M  END
$$$$
DrugBank_2955
 OpenBabel01151909533D

 18 18  0  0  0  0  0  0  0  0999 V2000
    1.8851   -1.0363   -0.1124 C   0  0  0  0  0  0  0  0  0  0  0  0
    0.8066   -0.4630    0.5610 C   0  0  0  0  0  0  0  0  0  0  0  0
    2.9210   -1.6309    0.6081 C   0  0  0  0  0  0  0  0  0  0  0  0
    0.7638   -0.4841    1.9551 C   0  0  0  0  0  0  0  0  0  0  0  0
    2.8783   -1.6520    2.0022 C   0  0  0  0  0  0  0  0  0  0  0  0
    1.7997   -1.0786    2.6757 C   0  0  0  0  0  0  0  0  0  0  0  0
    1.7548   -1.1014    4.1663 C   0  0  0  0  0  0  0  0  0  0  0  0
    3.5231    0.8922    4.4356 O   0  0  0  0  0  0  0  0  0  0  0  0
    2.1682    0.0082    6.4064 O   0  0  0  0  0  0  0  0  0  0  0  0
    2.1441    0.5264    4.8847 S   0  0  2  0  0  0  0  0  0  0  0  0
    1.9176   -1.0210   -1.1980 H   0  0  0  0  0  0  0  0  0  0  0  0
   -0.0006   -0.0010    0.0001 H   0  0  0  0  0  0  0  0  0  0  0  0
    3.7604   -2.0783    0.0841 H   0  0  0  0  0  0  0  0  0  0  0  0
   -0.0804   -0.0348    2.4713 H   0  0  0  0  0  0  0  0  0  0  0  0
    3.6899   -2.1173    2.5553 H   0  0  0  0  0  0  0  0  0  0  0  0
    0.7587   -1.3913    4.5280 H   0  0  0  0  0  0  0  0  0  0  0  0
    2.4667   -1.8294    4.5791 H   0  0  0  0  0  0  0  0  0  0  0  0
    2.5163    0.7160    6.9978 H   0  0  0  0  0  0  0  0  0  0  0  0
  1  2  2  0  0  0  0
  1  3  1  0  0  0  0
  1 11  1  0  0  0  0
  2  4  1  0  0  0  0
  2 12  1  0  0  0  0
  3  5  2  0  0  0  0
  3 13  1  0  0  0  0
  4  6  2  0  0  0  0
  4 14  1  0  0  0  0
  5  6  1  0  0  0  0
  5 15  1  0  0  0  0
  6  7  1  0  0  0  0
  7 10  1  0  0  0  0
  7 16  1  0  0  0  0
  7 17  1  0  0  0  0
  9 10  1  0  0  0  0
  9 18  1  0  0  0  0
 10  8  2  6  0  0  0
M  END
$$$$
DrugBank_5523
 OpenBabel01151909533D

 56 59  0  0  1  0  0  0  0  0999 V2000
   -1.8075   -4.3018    3.9725 C   0  0  0  0  0  0  0  0  0  0  0  0
    1.4954    2.8588   -2.6387 C   0  0  0  0  0  0  0  0  0  0  0  0
   -0.1087    3.2337   -0.4020 C   0  0  0  0  0  0  0  0  0  0  0  0
    1.2649    1.7821   -1.7642 C   0  0  0  0  0  0  0  0  0  0  0  0
    0.4291    1.9561   -0.6391 C   0  0  0  0  0  0  0  0  0  0  0  0
    0.1356    4.2969   -1.2741 C   0  0  0  0  0  0  0  0  0  0  0  0
    0.9338    4.1088   -2.3950 C   0  0  0  0  0  0  0  0  0  0  0  0
    1.8917    0.4527   -2.1067 C   0  0  0  0  0  0  0  0  0  0  0  0
    1.8415   -0.5687   -0.9742 C   0  0  0  0  0  0  0  0  0  0  0  0
   -1.1662    0.8327    1.0761 C   0  0  0  0  0  0  0  0  0  0  0  0
    0.5422   -3.1226    0.3157 C   0  0  0  0  0  0  0  0  0  0  0  0
   -0.1810   -3.9405    1.4021 C   0  0  0  0  0  0  0  0  0  0  0  0
   -1.3797   -0.3662    2.0200 C   0  0  0  0  0  0  0  0  0  0  0  0
    0.2000    0.8080    0.3403 C   0  0  1  0  0  0  0  0  0  0  0  0
    0.4493   -0.5722   -0.3394 C   0  0  2  0  0  0  0  0  0  0  0  0
    0.2851   -1.6718    0.7100 C   0  0  1  0  0  0  0  0  0  0  0  0
   -0.9777   -2.9235    2.2529 C   0  0  1  0  0  0  0  0  0  0  0  0
   -1.1377   -1.7054    1.3108 C   0  0  1  0  0  0  0  0  0  0  0  0
   -2.2613   -1.9484    0.2718 C   0  0  0  0  0  0  0  0  0  0  0  0
   -1.6986    5.7825   -1.5643 C   0  0  0  0  0  0  0  0  0  0  0  0
   -2.2566   -3.5107    2.8330 C   0  0  0  0  0  0  0  0  0  0  0  0
   -1.4772   -4.9393    4.8843 N   0  0  0  0  0  0  0  0  0  0  0  0
    0.7594    6.7561   -5.2846 N   0  0  0  0  0  0  0  0  0  0  0  0
   -0.5889    4.6072   -4.9581 O   0  0  0  0  0  0  0  0  0  0  0  0
    1.8542    4.4629   -5.5768 O   0  0  0  0  0  0  0  0  0  0  0  0
   -0.4115    5.5168   -1.0108 O   0  0  0  0  0  0  0  0  0  0  0  0
    1.1776    5.1346   -3.2560 O   0  0  0  0  0  0  0  0  0  0  0  0
    0.7729    5.0974   -4.8449 S   0  0  0  0  0  0  0  0  0  0  0  0
    2.1222    2.7172   -3.5169 H   0  0  0  0  0  0  0  0  0  0  0  0
   -0.7218    3.4255    0.4740 H   0  0  0  0  0  0  0  0  0  0  0  0
    1.3616    0.0460   -2.9775 H   0  0  0  0  0  0  0  0  0  0  0  0
    2.9386    0.5998   -2.3988 H   0  0  0  0  0  0  0  0  0  0  0  0
    2.0977   -1.5549   -1.3768 H   0  0  0  0  0  0  0  0  0  0  0  0
    2.5993   -0.3259   -0.2180 H   0  0  0  0  0  0  0  0  0  0  0  0
   -1.9813    0.8826    0.3442 H   0  0  0  0  0  0  0  0  0  0  0  0
   -1.2507    1.7384    1.6876 H   0  0  0  0  0  0  0  0  0  0  0  0
    1.6113   -3.3570    0.2899 H   0  0  0  0  0  0  0  0  0  0  0  0
    0.1290   -3.3502   -0.6732 H   0  0  0  0  0  0  0  0  0  0  0  0
   -0.8326   -4.6869    0.9340 H   0  0  0  0  0  0  0  0  0  0  0  0
    0.5366   -4.4814    2.0290 H   0  0  0  0  0  0  0  0  0  0  0  0
   -0.6917   -0.2633    2.8695 H   0  0  0  0  0  0  0  0  0  0  0  0
   -2.3924   -0.3267    2.4389 H   0  0  0  0  0  0  0  0  0  0  0  0
    0.9698    0.9399    1.1166 H   0  0  0  0  0  0  0  0  0  0  0  0
   -0.2787   -0.7228   -1.1465 H   0  0  0  0  0  0  0  0  0  0  0  0
    1.0011   -1.4465    1.5185 H   0  0  0  0  0  0  0  0  0  0  0  0
   -0.3429   -2.6305    3.1018 H   0  0  0  0  0  0  0  0  0  0  0  0
   -2.0798   -2.8940   -0.2206 H   0  0  0  0  0  0  0  0  0  0  0  0
   -2.2470   -1.1427   -0.4493 H   0  0  0  0  0  0  0  0  0  0  0  0
   -3.2115   -1.9719    0.7876 H   0  0  0  0  0  0  0  0  0  0  0  0
   -2.0184    6.7877   -1.2788 H   0  0  0  0  0  0  0  0  0  0  0  0
   -2.4142    5.0428   -1.1965 H   0  0  0  0  0  0  0  0  0  0  0  0
   -1.6377    5.7175   -2.6532 H   0  0  0  0  0  0  0  0  0  0  0  0
   -2.7406   -4.1200    2.0771 H   0  0  0  0  0  0  0  0  0  0  0  0
   -2.9144   -2.7009    3.1307 H   0  0  0  0  0  0  0  0  0  0  0  0
    0.2747    7.3973   -4.6436 H   0  0  0  0  0  0  0  0  0  0  0  0
    0.5648    6.9677   -6.2715 H   0  0  0  0  0  0  0  0  0  0  0  0
  1 21  1  0  0  0  0
  1 22  3  0  0  0  0
  2  4  2  0  0  0  0
  2  7  1  0  0  0  0
  2 29  1  0  0  0  0
  3  5  2  0  0  0  0
  3  6  1  0  0  0  0
  3 30  1  0  0  0  0
  4  5  1  0  0  0  0
  4  8  1  0  0  0  0
  5 14  1  0  0  0  0
  6  7  2  0  0  0  0
  6 26  1  0  0  0  0
  7 27  1  0  0  0  0
  8  9  1  0  0  0  0
  8 31  1  0  0  0  0
  8 32  1  0  0  0  0
  9 15  1  0  0  0  0
  9 33  1  0  0  0  0
  9 34  1  0  0  0  0
 10 13  1  0  0  0  0
 10 14  1  0  0  0  0
 10 35  1  0  0  0  0
 10 36  1  0  0  0  0
 11 12  1  0  0  0  0
 11 16  1  0  0  0  0
 11 37  1  0  0  0  0
 11 38  1  0  0  0  0
 12 17  1  0  0  0  0
 12 39  1  0  0  0  0
 12 40  1  0  0  0  0
 13 18  1  0  0  0  0
 13 41  1  0  0  0  0
 13 42  1  0  0  0  0
 14 15  1  6  0  0  0
 14 43  1  0  0  0  0
 15 16  1  1  0  0  0
 15 44  1  0  0  0  0
 16 18  1  1  0  0  0
 16 45  1  0  0  0  0
 17 18  1  6  0  0  0
 17 21  1  0  0  0  0
 17 46  1  0  0  0  0
 18 19  1  6  0  0  0
 19 47  1  0  0  0  0
 19 48  1  0  0  0  0
 19 49  1  0  0  0  0
 20 26  1  0  0  0  0
 20 50  1  0  0  0  0
 20 51  1  0  0  0  0
 20 52  1  0  0  0  0
 21 53  1  0  0  0  0
 21 54  1  0  0  0  0
 23 28  1  0  0  0  0
 23 55  1  0  0  0  0
 23 56  1  0  0  0  0
 24 28  2  0  0  0  0
 25 28  2  0  0  0  0
 27 28  1  0  0  0  0
M  END
$$$$
DrugBank_2967
 OpenBabel01151909533D

 30 30  0  0  0  0  0  0  0  0999 V2000
    0.5636    0.5439   -0.7663 C   0  0  0  0  0  0  0  0  0  0  0  0
    0.3506   -0.1159   -2.1257 C   0  0  0  0  0  0  0  0  0  0  0  0
    0.1339    2.0082   -0.7774 C   0  0  0  0  0  0  0  0  0  0  0  0
    1.0408    0.6628   -3.2444 C   0  0  0  0  0  0  0  0  0  0  0  0
    0.8244    2.7893   -1.8941 C   0  0  0  0  0  0  0  0  0  0  0  0
    0.5978    2.1300   -3.2590 C   0  0  0  0  0  0  0  0  0  0  0  0
    0.6383    4.0894   -4.6433 C   0  0  0  0  0  0  0  0  0  0  0  0
    1.3336    4.8372   -5.7647 C   0  0  0  0  0  0  0  0  0  0  0  0
    1.3312    2.8600   -4.2912 N   0  0  0  0  0  0  0  0  0  0  0  0
    0.3883    7.1857   -5.0754 O   0  0  0  0  0  0  0  0  0  0  0  0
   -0.7096    5.9358   -6.9860 O   0  0  0  0  0  0  0  0  0  0  0  0
    1.5916    6.8946   -7.2566 O   0  0  0  0  0  0  0  0  0  0  0  0
    0.4711    6.3067   -6.2274 S   0  0  0  0  0  0  0  0  0  0  0  0
   -0.0003   -0.0001   -0.0002 H   0  0  0  0  0  0  0  0  0  0  0  0
    1.6233    0.4772   -0.4908 H   0  0  0  0  0  0  0  0  0  0  0  0
    0.7339   -1.1423   -2.1012 H   0  0  0  0  0  0  0  0  0  0  0  0
   -0.7241   -0.1812   -2.3359 H   0  0  0  0  0  0  0  0  0  0  0  0
   -0.9536    2.0687   -0.9086 H   0  0  0  0  0  0  0  0  0  0  0  0
    0.3651    2.4674    0.1903 H   0  0  0  0  0  0  0  0  0  0  0  0
    2.1282    0.5956   -3.1068 H   0  0  0  0  0  0  0  0  0  0  0  0
    0.8129    0.1888   -4.2071 H   0  0  0  0  0  0  0  0  0  0  0  0
    0.4434    3.8179   -1.9023 H   0  0  0  0  0  0  0  0  0  0  0  0
    1.8988    2.8502   -1.6757 H   0  0  0  0  0  0  0  0  0  0  0  0
   -0.4669    2.1774   -3.5038 H   0  0  0  0  0  0  0  0  0  0  0  0
    0.5669    4.6993   -3.7374 H   0  0  0  0  0  0  0  0  0  0  0  0
   -0.3736    3.8074   -4.9499 H   0  0  0  0  0  0  0  0  0  0  0  0
    1.3829    4.2156   -6.6637 H   0  0  0  0  0  0  0  0  0  0  0  0
    2.3487    5.1358   -5.4859 H   0  0  0  0  0  0  0  0  0  0  0  0
    1.4152    2.2694   -5.1159 H   0  0  0  0  0  0  0  0  0  0  0  0
    2.4397    7.1785   -6.8412 H   0  0  0  0  0  0  0  0  0  0  0  0
  1  2  1  0  0  0  0
  1  3  1  0  0  0  0
  1 14  1  0  0  0  0
  1 15  1  0  0  0  0
  2  4  1  0  0  0  0
  2 16  1  0  0  0  0
  2 17  1  0  0  0  0
  3  5  1  0  0  0  0
  3 18  1  0  0  0  0
  3 19  1  0  0  0  0
  4  6  1  0  0  0  0
  4 20  1  0  0  0  0
  4 21  1  0  0  0  0
  5  6  1  0  0  0  0
  5 22  1  0  0  0  0
  5 23  1  0  0  0  0
  6  9  1  0  0  0  0
  6 24  1  0  0  0  0
  7  8  1  0  0  0  0
  7  9  1  0  0  0  0
  7 25  1  0  0  0  0
  7 26  1  0  0  0  0
  8 13  1  0  0  0  0
  8 27  1  0  0  0  0
  8 28  1  0  0  0  0
  9 29  1  0  0  0  0
 10 13  2  0  0  0  0
 11 13  2  0  0  0  0
 12 13  1  0  0  0  0
 12 30  1  0  0  0  0
M  END
$$$$
DrugBank_2982
 OpenBabel01151909533D

 58 61  0  0  1  0  0  0  0  0999 V2000
   -1.6326    1.8794   -5.4180 C   0  0  0  0  0  0  0  0  0  0  0  0
   -2.3022    2.0350   -7.7342 C   0  0  0  0  0  0  0  0  0  0  0  0
   -2.7296    1.0587   -5.1560 C   0  0  0  0  0  0  0  0  0  0  0  0
   -3.3992    1.2141   -7.4722 C   0  0  0  0  0  0  0  0  0  0  0  0
    0.0061   -1.1388   -3.0481 C   0  0  0  0  0  0  0  0  0  0  0  0
   -3.1853   -1.8823   -0.1850 C   0  0  0  0  0  0  0  0  0  0  0  0
   -1.4190    2.3676   -6.7071 C   0  0  0  0  0  0  0  0  0  0  0  0
   -1.8522   -2.5038   -1.7276 C   0  0  0  0  0  0  0  0  0  0  0  0
   -3.6128    0.7260   -6.1831 C   0  0  0  0  0  0  0  0  0  0  0  0
   -1.5748   -1.1650   -1.5017 C   0  0  0  0  0  0  0  0  0  0  0  0
   -1.1001   -3.1454   -2.7066 C   0  0  0  0  0  0  0  0  0  0  0  0
   -0.4443    5.1350   -5.3320 C   0  0  0  0  0  0  0  0  0  0  0  0
   -1.3266    2.2640    1.1336 C   0  0  2  0  0  0  0  0  0  0  0  0
   -1.5872    0.7776    1.2458 C   0  0  2  0  0  0  0  0  0  0  0  0
   -1.2921    2.4556   -0.3738 C   0  0  2  0  0  0  0  0  0  0  0  0
   -2.5488    0.5442    0.0875 C   0  0  2  0  0  0  0  0  0  0  0  0
   -0.2305    3.2562   -6.9913 C   0  0  0  0  0  0  0  0  0  0  0  0
   -1.6307    3.8699   -0.8096 C   0  0  0  0  0  0  0  0  0  0  0  0
   -0.5450    4.7468   -6.8008 C   0  0  2  0  0  0  0  0  0  0  0  0
   -0.6569   -0.4101   -2.1238 N   0  0  0  0  0  0  0  0  0  0  0  0
   -0.1543   -2.4436   -3.3762 N   0  0  0  0  0  0  0  0  0  0  0  0
   -2.8576   -2.9378   -0.9006 N   0  0  0  0  0  0  0  0  0  0  0  0
   -2.4361   -0.7835   -0.5128 N   0  0  0  0  0  0  0  0  0  0  0  0
   -1.3144   -4.5027   -3.0017 N   0  0  0  0  0  0  0  0  0  0  0  0
    0.4257    5.5566   -7.5373 N   0  0  0  0  0  0  0  0  0  0  0  0
   -1.6830    5.0096   -4.6215 N   0  0  0  0  0  0  0  0  0  0  0  0
    0.6036    5.4852   -4.7988 O   0  0  0  0  0  0  0  0  0  0  0  0
   -3.2854    5.6805   -2.7433 O   0  0  0  0  0  0  0  0  0  0  0  0
   -0.8577    6.3241   -2.5706 O   0  0  0  0  0  0  0  0  0  0  0  0
   -2.2632    1.5420   -0.9118 O   0  0  0  0  0  0  0  0  0  0  0  0
   -4.6824   -0.0760   -5.9275 O   0  0  0  0  0  0  0  0  0  0  0  0
   -0.0963    2.6103    1.7401 O   0  0  0  0  0  0  0  0  0  0  0  0
   -2.1986    0.4478    2.4806 O   0  0  0  0  0  0  0  0  0  0  0  0
   -1.5604    3.9467   -2.2247 O   0  0  0  0  0  0  0  0  0  0  0  0
   -1.8831    5.3728   -2.9585 S   0  0  0  0  0  0  0  0  0  0  0  0
   -0.9497    2.1335   -4.6119 H   0  0  0  0  0  0  0  0  0  0  0  0
   -2.1437    2.4109   -8.7417 H   0  0  0  0  0  0  0  0  0  0  0  0
   -2.8905    0.6812   -4.1497 H   0  0  0  0  0  0  0  0  0  0  0  0
   -4.0832    0.9584   -8.2765 H   0  0  0  0  0  0  0  0  0  0  0  0
    0.7718   -0.6079   -3.6038 H   0  0  0  0  0  0  0  0  0  0  0  0
   -3.9507   -1.8525    0.5784 H   0  0  0  0  0  0  0  0  0  0  0  0
   -2.1289    2.8371    1.6134 H   0  0  0  0  0  0  0  0  0  0  0  0
   -0.6603    0.1994    1.1542 H   0  0  0  0  0  0  0  0  0  0  0  0
   -0.3114    2.1844   -0.7817 H   0  0  0  0  0  0  0  0  0  0  0  0
   -3.6125    0.6471    0.3925 H   0  0  0  0  0  0  0  0  0  0  0  0
    0.0976    3.0679   -8.0226 H   0  0  0  0  0  0  0  0  0  0  0  0
    0.6094    2.9540   -6.3510 H   0  0  0  0  0  0  0  0  0  0  0  0
   -0.9202    4.5836   -0.3821 H   0  0  0  0  0  0  0  0  0  0  0  0
   -2.6428    4.1376   -0.4918 H   0  0  0  0  0  0  0  0  0  0  0  0
   -1.5436    4.9860   -7.1827 H   0  0  0  0  0  0  0  0  0  0  0  0
   -1.9842   -5.0234   -2.4678 H   0  0  0  0  0  0  0  0  0  0  0  0
   -0.7302   -4.9582   -3.6771 H   0  0  0  0  0  0  0  0  0  0  0  0
    0.5824    6.4906   -7.2301 H   0  0  0  0  0  0  0  0  0  0  0  0
    0.7349    5.2228   -8.4230 H   0  0  0  0  0  0  0  0  0  0  0  0
   -2.5052    4.6803   -5.1437 H   0  0  0  0  0  0  0  0  0  0  0  0
   -4.6940   -0.3331   -4.9917 H   0  0  0  0  0  0  0  0  0  0  0  0
    0.0139    3.5712    1.6361 H   0  0  0  0  0  0  0  0  0  0  0  0
   -1.5887    0.7274    3.1843 H   0  0  0  0  0  0  0  0  0  0  0  0
  1  3  2  0  0  0  0
  1  7  1  0  0  0  0
  1 36  1  0  0  0  0
  2  4  1  0  0  0  0
  2  7  2  0  0  0  0
  2 37  1  0  0  0  0
  3  9  1  0  0  0  0
  3 38  1  0  0  0  0
  4  9  2  0  0  0  0
  4 39  1  0  0  0  0
  5 20  2  0  0  0  0
  5 21  1  0  0  0  0
  5 40  1  0  0  0  0
  6 22  2  0  0  0  0
  6 23  1  0  0  0  0
  6 41  1  0  0  0  0
  7 17  1  0  0  0  0
  8 10  2  0  0  0  0
  8 11  1  0  0  0  0
  8 22  1  0  0  0  0
  9 31  1  0  0  0  0
 10 20  1  0  0  0  0
 10 23  1  0  0  0  0
 11 21  2  0  0  0  0
 11 24  1  0  0  0  0
 12 19  1  0  0  0  0
 12 26  1  0  0  0  0
 12 27  2  0  0  0  0
 13 14  1  1  0  0  0
 13 32  1  0  0  0  0
 13 42  1  0  0  0  0
 14 16  1  6  0  0  0
 14 33  1  0  0  0  0
 14 43  1  0  0  0  0
 15 13  1  1  0  0  0
 15 18  1  0  0  0  0
 15 30  1  0  0  0  0
 15 44  1  0  0  0  0
 16 23  1  0  0  0  0
 16 30  1  0  0  0  0
 16 45  1  1  0  0  0
 17 19  1  0  0  0  0
 17 46  1  0  0  0  0
 17 47  1  0  0  0  0
 18 34  1  0  0  0  0
 18 48  1  0  0  0  0
 18 49  1  0  0  0  0
 19 25  1  0  0  0  0
 19 50  1  6  0  0  0
 24 51  1  0  0  0  0
 24 52  1  0  0  0  0
 25 53  1  0  0  0  0
 25 54  1  0  0  0  0
 26 35  1  0  0  0  0
 26 55  1  0  0  0  0
 28 35  2  0  0  0  0
 29 35  2  0  0  0  0
 31 56  1  0  0  0  0
 32 57  1  0  0  0  0
 33 58  1  0  0  0  0
 34 35  1  0  0  0  0
M  END
$$$$
DrugBank_2986
 OpenBabel01151909533D

 12 12  0  0  0  0  0  0  0  0999 V2000
    1.3879   -0.0684    1.6522 C   0  0  0  0  0  0  0  0  0  0  0  0
    0.2265   -0.4197    0.9733 C   0  0  0  0  0  0  0  0  0  0  0  0
    1.6520   -0.6227    2.8997 C   0  0  0  0  0  0  0  0  0  0  0  0
   -0.6317   -1.3224    1.5803 C   0  0  0  0  0  0  0  0  0  0  0  0
    0.7299   -1.5161    3.4206 C   0  0  0  0  0  0  0  0  0  0  0  0
   -0.4092   -1.8816    2.7908 N   0  0  0  0  0  0  0  0  0  0  0  0
    1.0285   -2.2519    5.0183 S   0  0  0  0  0  0  0  0  0  0  0  0
    2.0861    0.6353    1.2089 H   0  0  0  0  0  0  0  0  0  0  0  0
    0.0001   -0.0013   -0.0005 H   0  0  0  0  0  0  0  0  0  0  0  0
    2.5591   -0.3523    3.4307 H   0  0  0  0  0  0  0  0  0  0  0  0
   -1.5500   -1.6299    1.0911 H   0  0  0  0  0  0  0  0  0  0  0  0
   -0.0855   -2.9971    5.0719 H   0  0  0  0  0  0  0  0  0  0  0  0
  1  2  2  0  0  0  0
  1  3  1  0  0  0  0
  1  8  1  0  0  0  0
  2  4  1  0  0  0  0
  2  9  1  0  0  0  0
  3  5  2  0  0  0  0
  3 10  1  0  0  0  0
  4  6  2  0  0  0  0
  4 11  1  0  0  0  0
  5  6  1  0  0  0  0
  5  7  1  0  0  0  0
  7 12  1  0  0  0  0
M  END
$$$$
DrugBank_246
 OpenBabel01151909533D

 45 46  0  0  1  0  0  0  0  0999 V2000
   -5.3474    2.0405    2.9608 C   0  0  0  0  0  0  0  0  0  0  0  0
   -4.4341    1.3894    2.1583 C   0  0  0  0  0  0  0  0  0  0  0  0
   -4.7758    3.1552    0.9033 C   0  0  0  0  0  0  0  0  0  0  0  0
   -3.5387   -3.1062   -1.2012 C   0  0  0  0  0  0  0  0  0  0  0  0
   -3.8161    0.0803    2.5013 C   0  0  0  0  0  0  0  0  0  0  0  0
   -2.8297   -0.5324    1.5422 C   0  0  0  0  0  0  0  0  0  0  0  0
   -3.0527   -3.6568    5.0382 C   0  0  0  0  0  0  0  0  0  0  0  0
   -2.7009   -2.0490   -0.4126 C   0  0  2  0  0  0  0  0  0  0  0  0
   -1.8882   -3.2703    0.0994 C   0  0  2  0  0  0  0  0  0  0  0  0
   -0.3923   -3.2387   -0.1316 C   0  0  0  0  0  0  0  0  0  0  0  0
   -5.3314   -2.5986    4.9030 C   0  0  0  0  0  0  0  0  0  0  0  0
   -3.4373   -1.4044    6.0920 C   0  0  0  0  0  0  0  0  0  0  0  0
   -3.8273   -2.3479    4.9580 C   0  0  0  0  0  0  0  0  0  0  0  0
   -4.1055    2.0268    0.9779 N   0  0  0  0  0  0  0  0  0  0  0  0
   -4.1227   -0.5320    3.6051 N   0  0  0  0  0  0  0  0  0  0  0  0
   -2.5852   -4.1126   -0.9143 N   0  0  0  0  0  0  0  0  0  0  0  0
   -3.4413   -1.3451    0.6229 N   0  0  0  0  0  0  0  0  0  0  0  0
   -4.6404    4.0556   -0.2354 N   0  3  0  0  0  0  0  0  0  0  0  0
   -3.2139   -6.0814   -2.3551 O   0  0  0  0  0  0  0  0  0  0  0  0
   -4.5848   -3.1764   -1.8056 O   0  0  0  0  0  0  0  0  0  0  0  0
   -1.6487   -0.2540    1.6740 O   0  0  0  0  0  0  0  0  0  0  0  0
   -2.2286   -4.0257    4.2098 O   0  0  0  0  0  0  0  0  0  0  0  0
   -3.8964   -6.0564    0.0098 O   0  0  0  0  0  0  0  0  0  0  0  0
   -1.5299   -6.3766   -0.5860 O   0  0  0  0  0  0  0  0  0  0  0  0
   -3.3607   -4.3987    6.1327 O   0  0  0  0  0  0  0  0  0  0  0  0
   -3.4367   -1.7477    3.7327 O   0  0  0  0  0  0  0  0  0  0  0  0
   -5.8192    3.5127    2.2181 S   0  0  0  0  0  0  0  0  0  0  0  0
   -2.8235   -5.7734   -0.9646 S   0  0  0  0  0  0  0  0  0  0  0  0
   -5.7495    1.7369    3.9173 H   0  0  0  0  0  0  0  0  0  0  0  0
   -2.1608   -1.3609   -1.0707 H   0  0  0  0  0  0  0  0  0  0  0  0
   -2.1457   -3.5859    1.1189 H   0  0  0  0  0  0  0  0  0  0  0  0
   -0.1698   -2.9212   -1.1539 H   0  0  0  0  0  0  0  0  0  0  0  0
    0.0396   -4.2310    0.0243 H   0  0  0  0  0  0  0  0  0  0  0  0
    0.0867   -2.5402    0.5598 H   0  0  0  0  0  0  0  0  0  0  0  0
   -5.9039   -1.6676    4.8451 H   0  0  0  0  0  0  0  0  0  0  0  0
   -5.5938   -3.2174    4.0376 H   0  0  0  0  0  0  0  0  0  0  0  0
   -5.6660   -3.1449    5.7926 H   0  0  0  0  0  0  0  0  0  0  0  0
   -3.9995   -0.4656    6.0259 H   0  0  0  0  0  0  0  0  0  0  0  0
   -2.3708   -1.1592    6.0776 H   0  0  0  0  0  0  0  0  0  0  0  0
   -3.6749   -1.8445    7.0670 H   0  0  0  0  0  0  0  0  0  0  0  0
   -4.4419   -1.4854    0.6525 H   0  0  0  0  0  0  0  0  0  0  0  0
   -4.0875    3.5990   -0.9678 H   0  0  0  0  0  0  0  0  0  0  0  0
   -5.5606    4.2994   -0.6153 H   0  0  0  0  0  0  0  0  0  0  0  0
   -4.1665    4.9155    0.0595 H   0  0  0  0  0  0  0  0  0  0  0  0
   -4.0325   -4.0159    6.7349 H   0  0  0  0  0  0  0  0  0  0  0  0
  1  2  2  0  0  0  0
  1 27  1  0  0  0  0
  1 29  1  0  0  0  0
  2  5  1  0  0  0  0
  2 14  1  0  0  0  0
  3 14  2  0  0  0  0
  3 18  1  0  0  0  0
  3 27  1  0  0  0  0
  4  8  1  0  0  0  0
  4 16  1  0  0  0  0
  4 20  2  0  0  0  0
  5  6  1  0  0  0  0
  5 15  2  0  0  0  0
  6 17  1  0  0  0  0
  6 21  2  0  0  0  0
  7 13  1  0  0  0  0
  7 22  2  0  0  0  0
  7 25  1  0  0  0  0
  8  9  1  1  0  0  0
  8 17  1  0  0  0  0
  8 30  1  0  0  0  0
  9 10  1  0  0  0  0
  9 16  1  0  0  0  0
  9 31  1  1  0  0  0
 10 32  1  0  0  0  0
 10 33  1  0  0  0  0
 10 34  1  0  0  0  0
 11 13  1  0  0  0  0
 11 35  1  0  0  0  0
 11 36  1  0  0  0  0
 11 37  1  0  0  0  0
 12 13  1  0  0  0  0
 12 38  1  0  0  0  0
 12 39  1  0  0  0  0
 12 40  1  0  0  0  0
 13 26  1  0  0  0  0
 15 26  1  0  0  0  0
 16 28  1  0  0  0  0
 17 41  1  0  0  0  0
 18 42  1  0  0  0  0
 18 43  1  0  0  0  0
 18 44  1  0  0  0  0
 19 28  1  0  0  0  0
 23 28  2  0  0  0  0
 24 28  2  0  0  0  0
 25 45  1  0  0  0  0
M  CHG  1  18   1
M  END
$$$$
DrugBank_2987
 OpenBabel01151909533D

 54 54  0  0  1  0  0  0  0  0999 V2000
    5.2239   -4.1907    1.2227 C   0  0  0  0  0  0  0  0  0  0  0  0
    7.3273   -4.8616    0.2414 C   0  0  0  0  0  0  0  0  0  0  0  0
    4.9900   -5.5068    1.6212 C   0  0  0  0  0  0  0  0  0  0  0  0
    7.0934   -6.1777    0.6399 C   0  0  0  0  0  0  0  0  0  0  0  0
    6.3925   -3.8681    0.5328 C   0  0  0  0  0  0  0  0  0  0  0  0
    5.9247   -6.5003    1.3298 C   0  0  0  0  0  0  0  0  0  0  0  0
    2.5270    2.3877   -2.0528 C   0  0  0  0  0  0  0  0  0  0  0  0
    1.3572   -1.0614   -1.6140 C   0  0  0  0  0  0  0  0  0  0  0  0
    0.9729   -4.2111   -0.9430 C   0  0  0  0  0  0  0  0  0  0  0  0
    2.3411    5.2510   -5.5745 C   0  0  0  0  0  0  0  0  0  0  0  0
    3.0008    3.0341   -3.3441 C   0  0  0  0  0  0  0  0  0  0  0  0
    0.0421   -3.0388   -0.8833 C   0  0  0  0  0  0  0  0  0  0  0  0
    3.0556    4.5616   -3.2805 C   0  0  0  0  0  0  0  0  0  0  0  0
    3.2911   -0.2215   -0.1680 C   0  0  0  0  0  0  0  0  0  0  0  0
    2.1029    0.1503   -1.0585 C   0  0  1  0  0  0  0  0  0  0  0  0
    3.4974    5.2097   -4.5953 C   0  0  2  0  0  0  0  0  0  0  0  0
    5.7250   -1.4246    0.3809 C   0  0  1  0  0  0  0  0  0  0  0  0
    3.9333    6.5714   -4.4178 N   0  0  0  0  0  0  0  0  0  0  0  0
    0.8143   -1.8495   -0.6091 N   0  0  0  0  0  0  0  0  0  0  0  0
    2.4929    1.0047   -2.1559 N   0  0  0  0  0  0  0  0  0  0  0  0
    6.6271   -2.5486    0.1336 N   0  0  0  0  0  0  0  0  0  0  0  0
    2.2378    3.0276   -1.0453 O   0  0  0  0  0  0  0  0  0  0  0  0
    1.2433   -1.2836   -2.8177 O   0  0  0  0  0  0  0  0  0  0  0  0
    2.1824   -4.1875   -0.7710 O   0  0  0  0  0  0  0  0  0  0  0  0
    1.4985    6.1371   -5.6355 O   0  0  0  0  0  0  0  0  0  0  0  0
    0.2751   -5.3425   -1.2218 O   0  0  0  0  0  0  0  0  0  0  0  0
    2.3080    4.1470   -6.3662 O   0  0  0  0  0  0  0  0  0  0  0  0
    6.4627   -0.2172    0.5871 O   0  0  0  0  0  0  0  0  0  0  0  0
    7.8573   -2.1692   -0.3974 O   0  0  0  0  0  0  0  0  0  0  0  0
    4.5512   -1.2344   -1.0097 S   0  0  0  0  0  0  0  0  0  0  0  0
    5.5762   -8.4606    1.9232 I   0  0  0  0  0  0  0  0  0  0  0  0
    4.4886   -3.4243    1.4546 H   0  0  0  0  0  0  0  0  0  0  0  0
    8.2411   -4.6211   -0.2955 H   0  0  0  0  0  0  0  0  0  0  0  0
    4.0728   -5.7365    2.1574 H   0  0  0  0  0  0  0  0  0  0  0  0
    7.8351   -6.9364    0.4028 H   0  0  0  0  0  0  0  0  0  0  0  0
    2.3627    2.7035   -4.1715 H   0  0  0  0  0  0  0  0  0  0  0  0
    4.0110    2.6532   -3.5387 H   0  0  0  0  0  0  0  0  0  0  0  0
   -0.4622   -2.9206   -1.8460 H   0  0  0  0  0  0  0  0  0  0  0  0
   -0.6877   -3.1838   -0.0826 H   0  0  0  0  0  0  0  0  0  0  0  0
    3.7521    4.8497   -2.4818 H   0  0  0  0  0  0  0  0  0  0  0  0
    2.0736    4.9528   -2.9851 H   0  0  0  0  0  0  0  0  0  0  0  0
    3.7899    0.6797    0.2033 H   0  0  0  0  0  0  0  0  0  0  0  0
    2.9424   -0.7883    0.7020 H   0  0  0  0  0  0  0  0  0  0  0  0
    1.3884    0.7361   -0.4670 H   0  0  0  0  0  0  0  0  0  0  0  0
    4.3387    4.6811   -5.0546 H   0  0  0  0  0  0  0  0  0  0  0  0
    5.1605   -1.5813    1.3040 H   0  0  0  0  0  0  0  0  0  0  0  0
    3.8658    7.2109   -5.1919 H   0  0  0  0  0  0  0  0  0  0  0  0
    4.4785    6.8079   -3.6057 H   0  0  0  0  0  0  0  0  0  0  0  0
    0.9943   -1.6149    0.3626 H   0  0  0  0  0  0  0  0  0  0  0  0
    2.7527    0.5754   -3.0391 H   0  0  0  0  0  0  0  0  0  0  0  0
   -0.6839   -5.1642   -1.3265 H   0  0  0  0  0  0  0  0  0  0  0  0
    3.0386    3.5080   -6.2238 H   0  0  0  0  0  0  0  0  0  0  0  0
    6.9750   -0.0687   -0.2255 H   0  0  0  0  0  0  0  0  0  0  0  0
    8.4639   -2.3797    0.3334 H   0  0  0  0  0  0  0  0  0  0  0  0
  1  3  2  0  0  0  0
  1  5  1  0  0  0  0
  1 32  1  0  0  0  0
  2  4  1  0  0  0  0
  2  5  2  0  0  0  0
  2 33  1  0  0  0  0
  3  6  1  0  0  0  0
  3 34  1  0  0  0  0
  4  6  2  0  0  0  0
  4 35  1  0  0  0  0
  5 21  1  0  0  0  0
  6 31  1  0  0  0  0
  7 11  1  0  0  0  0
  7 20  1  0  0  0  0
  7 22  2  0  0  0  0
  8 15  1  0  0  0  0
  8 19  1  0  0  0  0
  8 23  2  0  0  0  0
  9 12  1  0  0  0  0
  9 24  2  0  0  0  0
  9 26  1  0  0  0  0
 10 16  1  0  0  0  0
 10 25  2  0  0  0  0
 10 27  1  0  0  0  0
 11 13  1  0  0  0  0
 11 36  1  0  0  0  0
 11 37  1  0  0  0  0
 12 19  1  0  0  0  0
 12 38  1  0  0  0  0
 12 39  1  0  0  0  0
 13 16  1  0  0  0  0
 13 40  1  0  0  0  0
 13 41  1  0  0  0  0
 14 15  1  0  0  0  0
 14 30  1  0  0  0  0
 14 42  1  0  0  0  0
 14 43  1  0  0  0  0
 15 20  1  0  0  0  0
 15 44  1  1  0  0  0
 16 18  1  0  0  0  0
 16 45  1  6  0  0  0
 17 21  1  0  0  0  0
 17 28  1  0  0  0  0
 17 30  1  0  0  0  0
 17 46  1  1  0  0  0
 18 47  1  0  0  0  0
 18 48  1  0  0  0  0
 19 49  1  0  0  0  0
 20 50  1  0  0  0  0
 21 29  1  0  0  0  0
 26 51  1  0  0  0  0
 27 52  1  0  0  0  0
 28 53  1  0  0  0  0
 29 54  1  0  0  0  0
M  END
$$$$
DrugBank_2991
 OpenBabel01151909533D

 12 11  0  0  1  0  0  0  0  0999 V2000
    0.4359   -1.1686    0.4721 C   0  0  0  0  0  0  0  0  0  0  0  0
   -0.2761    1.2334    0.4562 C   0  0  0  0  0  0  0  0  0  0  0  0
   -0.2549   -0.0705   -0.3262 C   0  0  1  0  0  0  0  0  0  0  0  0
    0.4712    0.1307   -1.5373 O   0  0  0  0  0  0  0  0  0  0  0  0
   -1.6120    2.4445   -0.2952 Br  0  0  0  0  0  0  0  0  0  0  0  0
    1.4545   -0.8725    0.7463 H   0  0  0  0  0  0  0  0  0  0  0  0
    0.5247   -2.0808   -0.1279 H   0  0  0  0  0  0  0  0  0  0  0  0
   -0.1193   -1.4065    1.3844 H   0  0  0  0  0  0  0  0  0  0  0  0
    0.6753    1.7701    0.4008 H   0  0  0  0  0  0  0  0  0  0  0  0
   -0.5661    1.0861    1.5000 H   0  0  0  0  0  0  0  0  0  0  0  0
   -1.2699   -0.3911   -0.5875 H   0  0  0  0  0  0  0  0  0  0  0  0
    0.0094    0.8321   -2.0216 H   0  0  0  0  0  0  0  0  0  0  0  0
  1  3  1  0  0  0  0
  1  6  1  0  0  0  0
  1  7  1  0  0  0  0
  1  8  1  0  0  0  0
  2  3  1  0  0  0  0
  2  5  1  0  0  0  0
  2  9  1  0  0  0  0
  2 10  1  0  0  0  0
  3  4  1  0  0  0  0
  3 11  1  6  0  0  0
  4 12  1  0  0  0  0
M  END
$$$$
DrugBank_2998
 OpenBabel01151909533D

 31 31  0  0  0  0  0  0  0  0999 V2000
    1.8851   -1.0363   -0.1124 C   0  0  0  0  0  0  0  0  0  0  0  0
    0.8066   -0.4630    0.5610 C   0  0  0  0  0  0  0  0  0  0  0  0
    2.8783   -1.6520    2.0022 C   0  0  0  0  0  0  0  0  0  0  0  0
    2.9210   -1.6309    0.6081 C   0  0  0  0  0  0  0  0  0  0  0  0
    0.7638   -0.4841    1.9551 C   0  0  0  0  0  0  0  0  0  0  0  0
    1.7997   -1.0786    2.6757 C   0  0  0  0  0  0  0  0  0  0  0  0
    4.0452   -2.2287   -0.0946 C   0  0  0  0  0  0  0  0  0  0  0  0
   -1.4395    0.7253    2.0376 C   0  0  0  0  0  0  0  0  0  0  0  0
   -2.4004    1.2202    3.0894 C   0  0  0  0  0  0  0  0  0  0  0  0
    2.8075   -1.7078    4.9201 C   0  0  0  0  0  0  0  0  0  0  0  0
    2.9312   -1.1520    6.2831 N   0  0  0  0  0  0  0  0  0  0  0  0
    2.8282   -3.1716    5.0985 N   0  0  0  0  0  0  0  0  0  0  0  0
   -0.3274    0.0953    2.6083 N   0  0  0  0  0  0  0  0  0  0  0  0
    1.7770   -1.1126    4.0880 N   0  0  0  0  0  0  0  0  0  0  0  0
    5.0129   -2.7797    0.4404 O   0  0  0  0  0  0  0  0  0  0  0  0
   -1.6749    0.8893    0.8448 O   0  0  0  0  0  0  0  0  0  0  0  0
    3.9294   -2.1232   -1.4468 O   0  0  0  0  0  0  0  0  0  0  0  0
    1.9085   -1.0144   -1.1989 H   0  0  0  0  0  0  0  0  0  0  0  0
    0.0056   -0.0029   -0.0124 H   0  0  0  0  0  0  0  0  0  0  0  0
    3.6868   -2.1164    2.5631 H   0  0  0  0  0  0  0  0  0  0  0  0
   -2.1404    2.2430    3.3764 H   0  0  0  0  0  0  0  0  0  0  0  0
   -2.3439    0.5788    3.9735 H   0  0  0  0  0  0  0  0  0  0  0  0
   -3.4229    1.1973    2.7012 H   0  0  0  0  0  0  0  0  0  0  0  0
    3.7700   -1.4521    4.4614 H   0  0  0  0  0  0  0  0  0  0  0  0
    3.1212   -0.1536    6.2087 H   0  0  0  0  0  0  0  0  0  0  0  0
    3.7498   -1.5631    6.7303 H   0  0  0  0  0  0  0  0  0  0  0  0
    2.9804   -3.6185    4.1960 H   0  0  0  0  0  0  0  0  0  0  0  0
    3.6268   -3.4221    5.6800 H   0  0  0  0  0  0  0  0  0  0  0  0
   -0.3160    0.0552    3.6330 H   0  0  0  0  0  0  0  0  0  0  0  0
    0.9332   -0.7927    4.5229 H   0  0  0  0  0  0  0  0  0  0  0  0
    4.6828   -2.5245   -1.9303 H   0  0  0  0  0  0  0  0  0  0  0  0
  1  2  2  0  0  0  0
  1  4  1  0  0  0  0
  1 18  1  0  0  0  0
  2  5  1  0  0  0  0
  2 19  1  0  0  0  0
  3  4  2  0  0  0  0
  3  6  1  0  0  0  0
  3 20  1  0  0  0  0
  4  7  1  0  0  0  0
  5  6  2  0  0  0  0
  5 13  1  0  0  0  0
  6 14  1  0  0  0  0
  7 15  2  0  0  0  0
  7 17  1  0  0  0  0
  8  9  1  0  0  0  0
  8 13  1  0  0  0  0
  8 16  2  0  0  0  0
  9 21  1  0  0  0  0
  9 22  1  0  0  0  0
  9 23  1  0  0  0  0
 10 11  1  0  0  0  0
 10 12  1  0  0  0  0
 10 14  1  0  0  0  0
 10 24  1  0  0  0  0
 11 25  1  0  0  0  0
 11 26  1  0  0  0  0
 12 27  1  0  0  0  0
 12 28  1  0  0  0  0
 13 29  1  0  0  0  0
 14 30  1  0  0  0  0
 17 31  1  0  0  0  0
M  END
$$$$
DrugBank_5555
 OpenBabel01151909533D

 58 62  0  0  1  0  0  0  0  0999 V2000
    4.2511   -4.5591    8.0957 C   0  0  0  0  0  0  0  0  0  0  0  0
    3.5686   -5.6023    8.7281 C   0  0  0  0  0  0  0  0  0  0  0  0
    1.5627   -5.1505    7.4361 C   0  0  0  0  0  0  0  0  0  0  0  0
    1.8594   -3.1560    5.7813 C   0  0  0  0  0  0  0  0  0  0  0  0
    2.2302   -4.0939    6.7852 C   0  0  0  0  0  0  0  0  0  0  0  0
    3.5562   -3.8232    7.1293 C   0  0  0  0  0  0  0  0  0  0  0  0
    2.2451   -5.8952    8.4049 C   0  0  0  0  0  0  0  0  0  0  0  0
    2.9472   -2.3489    5.5401 C   0  0  0  0  0  0  0  0  0  0  0  0
   -1.4601    2.6495    7.6131 C   0  0  0  0  0  0  0  0  0  0  0  0
   -1.0600    3.9623    7.7438 C   0  0  0  0  0  0  0  0  0  0  0  0
   -0.3829    2.8689    5.7254 C   0  0  0  0  0  0  0  0  0  0  0  0
    3.0629   -1.2196    4.5818 C   0  0  0  0  0  0  0  0  0  0  0  0
    0.1931    2.5230    4.4004 C   0  0  0  0  0  0  0  0  0  0  0  0
   -2.2808    1.9790    8.6564 C   0  0  0  0  0  0  0  0  0  0  0  0
   -1.3514    4.8166    8.9323 C   0  0  0  0  0  0  0  0  0  0  0  0
    1.3817   -1.4135    0.8551 C   0  0  0  0  0  0  0  0  0  0  0  0
   -0.0156   -0.8111    0.7386 C   0  0  0  0  0  0  0  0  0  0  0  0
    2.3709   -0.4271    1.4771 C   0  0  0  0  0  0  0  0  0  0  0  0
   -0.5188   -0.2664    2.0746 C   0  0  0  0  0  0  0  0  0  0  0  0
   -2.2636    2.7903    9.9725 C   0  0  0  0  0  0  0  0  0  0  0  0
    1.8918    0.1223    2.8299 C   0  0  1  0  0  0  0  0  0  0  0  0
    0.4786    0.7304    2.6837 C   0  0  2  0  0  0  0  0  0  0  0  0
   -2.6189    4.9611   10.9847 C   0  0  0  0  0  0  0  0  0  0  0  0
   -1.0780    2.0174    6.4512 N   0  0  0  0  0  0  0  0  0  0  0  0
    3.9658   -2.7591    6.3578 N   0  0  0  0  0  0  0  0  0  0  0  0
   -2.4633    4.2361    9.7244 N   0  0  0  0  0  0  0  0  0  0  0  0
    1.9293   -0.9446    3.8355 N   0  0  0  0  0  0  0  0  0  0  0  0
   -0.0431    1.2312    3.9570 N   0  0  0  0  0  0  0  0  0  0  0  0
    4.1303   -0.6193    4.4879 O   0  0  0  0  0  0  0  0  0  0  0  0
    0.8471    3.3660    3.7920 O   0  0  0  0  0  0  0  0  0  0  0  0
   -0.1598    4.4438    6.3859 S   0  0  0  0  0  0  0  0  0  0  0  0
    1.4379   -7.1900    9.2052 Cl  0  0  0  0  0  0  0  0  0  0  0  0
    5.2813   -4.3317    8.3488 H   0  0  0  0  0  0  0  0  0  0  0  0
    4.0930   -6.1850    9.4826 H   0  0  0  0  0  0  0  0  0  0  0  0
    0.5303   -5.3774    7.1833 H   0  0  0  0  0  0  0  0  0  0  0  0
    0.8982   -3.0831    5.2902 H   0  0  0  0  0  0  0  0  0  0  0  0
   -3.3114    1.8940    8.2911 H   0  0  0  0  0  0  0  0  0  0  0  0
   -1.9078    0.9661    8.8423 H   0  0  0  0  0  0  0  0  0  0  0  0
   -0.4413    4.8947    9.5414 H   0  0  0  0  0  0  0  0  0  0  0  0
   -1.6318    5.8253    8.6065 H   0  0  0  0  0  0  0  0  0  0  0  0
    1.3372   -2.3258    1.4622 H   0  0  0  0  0  0  0  0  0  0  0  0
    1.7371   -1.7111   -0.1380 H   0  0  0  0  0  0  0  0  0  0  0  0
    0.0012    0.0010    0.0012 H   0  0  0  0  0  0  0  0  0  0  0  0
   -0.7134   -1.5674    0.3621 H   0  0  0  0  0  0  0  0  0  0  0  0
    3.3453   -0.9174    1.5908 H   0  0  0  0  0  0  0  0  0  0  0  0
    2.5180    0.4114    0.7843 H   0  0  0  0  0  0  0  0  0  0  0  0
   -1.4906    0.2202    1.9254 H   0  0  0  0  0  0  0  0  0  0  0  0
   -0.6941   -1.0982    2.7689 H   0  0  0  0  0  0  0  0  0  0  0  0
   -3.0608    2.4017   10.6180 H   0  0  0  0  0  0  0  0  0  0  0  0
   -1.3123    2.6254   10.4968 H   0  0  0  0  0  0  0  0  0  0  0  0
    2.5918    0.8774    3.1846 H   0  0  0  0  0  0  0  0  0  0  0  0
    0.5338    1.6056    2.0330 H   0  0  0  0  0  0  0  0  0  0  0  0
   -3.4387    4.5316   11.5664 H   0  0  0  0  0  0  0  0  0  0  0  0
   -2.8396    6.0142   10.7901 H   0  0  0  0  0  0  0  0  0  0  0  0
   -1.6994    4.8986   11.5728 H   0  0  0  0  0  0  0  0  0  0  0  0
    4.8866   -2.3433    6.3928 H   0  0  0  0  0  0  0  0  0  0  0  0
    1.1017   -1.5239    3.9220 H   0  0  0  0  0  0  0  0  0  0  0  0
   -0.5404    0.5698    4.5447 H   0  0  0  0  0  0  0  0  0  0  0  0
  1  2  2  0  0  0  0
  1  6  1  0  0  0  0
  1 33  1  0  0  0  0
  2  7  1  0  0  0  0
  2 34  1  0  0  0  0
  3  5  1  0  0  0  0
  3  7  2  0  0  0  0
  3 35  1  0  0  0  0
  4  5  1  0  0  0  0
  4  8  2  0  0  0  0
  4 36  1  0  0  0  0
  5  6  2  0  0  0  0
  6 25  1  0  0  0  0
  7 32  1  0  0  0  0
  8 12  1  0  0  0  0
  8 25  1  0  0  0  0
  9 10  2  0  0  0  0
  9 14  1  0  0  0  0
  9 24  1  0  0  0  0
 10 15  1  0  0  0  0
 10 31  1  0  0  0  0
 11 13  1  0  0  0  0
 11 24  2  0  0  0  0
 11 31  1  0  0  0  0
 12 27  1  0  0  0  0
 12 29  2  0  0  0  0
 13 28  1  0  0  0  0
 13 30  2  0  0  0  0
 14 20  1  0  0  0  0
 14 37  1  0  0  0  0
 14 38  1  0  0  0  0
 15 26  1  0  0  0  0
 15 39  1  0  0  0  0
 15 40  1  0  0  0  0
 16 17  1  0  0  0  0
 16 18  1  0  0  0  0
 16 41  1  0  0  0  0
 16 42  1  0  0  0  0
 17 19  1  0  0  0  0
 17 43  1  0  0  0  0
 17 44  1  0  0  0  0
 18 21  1  0  0  0  0
 18 45  1  0  0  0  0
 18 46  1  0  0  0  0
 19 22  1  0  0  0  0
 19 47  1  0  0  0  0
 19 48  1  0  0  0  0
 20 26  1  0  0  0  0
 20 49  1  0  0  0  0
 20 50  1  0  0  0  0
 21 22  1  6  0  0  0
 21 27  1  0  0  0  0
 21 51  1  0  0  0  0
 22 28  1  0  0  0  0
 22 52  1  6  0  0  0
 23 26  1  0  0  0  0
 23 53  1  0  0  0  0
 23 54  1  0  0  0  0
 23 55  1  0  0  0  0
 25 56  1  0  0  0  0
 27 57  1  0  0  0  0
 28 58  1  0  0  0  0
M  END
$$$$
DrugBank_3011
 OpenBabel01151909533D

 51 53  0  0  1  0  0  0  0  0999 V2000
    1.1182   -0.5184    5.1349 C   0  0  0  0  0  0  0  0  0  0  0  0
   -2.1322   -0.1230    2.2690 C   0  0  0  0  0  0  0  0  0  0  0  0
   -1.2345   -0.9935    3.9951 C   0  0  0  0  0  0  0  0  0  0  0  0
   -0.3236   -0.0630    3.5209 C   0  0  0  0  0  0  0  0  0  0  0  0
   -0.8714   -1.7051    5.1342 C   0  0  0  0  0  0  0  0  0  0  0  0
   -6.3248    5.0472   -1.0784 C   0  0  0  0  0  0  0  0  0  0  0  0
    0.1385    2.0525   -0.6912 C   0  0  2  0  0  0  0  0  0  0  0  0
    0.3852    0.9698    0.3367 C   0  0  2  0  0  0  0  0  0  0  0  0
   -1.2921    2.4556   -0.3738 C   0  0  2  0  0  0  0  0  0  0  0  0
   -0.3571    1.5191    1.5483 C   0  0  2  0  0  0  0  0  0  0  0  0
  -10.0095    6.0772   -0.4018 C   0  0  0  0  0  0  0  0  0  0  0  0
   -1.6307    3.8699   -0.8096 C   0  0  0  0  0  0  0  0  0  0  0  0
   -7.6561    5.0510   -0.3363 C   0  0  1  0  0  0  0  0  0  0  0  0
   -8.6588    5.9355   -1.0970 C   0  0  2  0  0  0  0  0  0  0  0  0
    0.8782    0.2329    4.0381 N   0  0  0  0  0  0  0  0  0  0  0  0
    0.3297   -1.4580    5.7103 N   0  0  0  0  0  0  0  0  0  0  0  0
   -2.3567   -1.0206    3.2058 N   0  0  0  0  0  0  0  0  0  0  0  0
   -0.9134    0.4840    2.4171 N   0  0  0  0  0  0  0  0  0  0  0  0
   -1.7341   -2.6687    5.6840 N   0  0  0  0  0  0  0  0  0  0  0  0
   -8.0882    3.6574   -0.2523 N   0  0  0  0  0  0  0  0  0  0  0  0
   -5.2228    5.5050   -0.2848 N   0  0  0  0  0  0  0  0  0  0  0  0
   -6.2018    4.6644   -2.2377 O   0  0  0  0  0  0  0  0  0  0  0  0
   -3.6329    5.7457   -2.2908 O   0  0  0  0  0  0  0  0  0  0  0  0
   -2.9248    6.6023   -0.0319 O   0  0  0  0  0  0  0  0  0  0  0  0
   -1.4267    2.3479    1.0536 O   0  0  0  0  0  0  0  0  0  0  0  0
    0.2665    1.5431   -2.0049 O   0  0  0  0  0  0  0  0  0  0  0  0
    1.7661    0.8230    0.6176 O   0  0  0  0  0  0  0  0  0  0  0  0
   -8.1060    7.2485   -1.2325 O   0  0  0  0  0  0  0  0  0  0  0  0
   -2.9839    4.1437   -0.4801 O   0  0  0  0  0  0  0  0  0  0  0  0
   -3.6062    5.6119   -0.8455 S   0  0  0  0  0  0  0  0  0  0  0  0
    2.0720   -0.3463    5.6224 H   0  0  0  0  0  0  0  0  0  0  0  0
   -2.8087    0.1287    1.4637 H   0  0  0  0  0  0  0  0  0  0  0  0
    0.8479    2.8789   -0.5638 H   0  0  0  0  0  0  0  0  0  0  0  0
   -0.0037    0.0013    0.0010 H   0  0  0  0  0  0  0  0  0  0  0  0
   -2.0065    1.7626   -0.8333 H   0  0  0  0  0  0  0  0  0  0  0  0
    0.2955    2.1397    2.1996 H   0  0  0  0  0  0  0  0  0  0  0  0
   -9.8867    6.4572    0.6184 H   0  0  0  0  0  0  0  0  0  0  0  0
  -10.6813    6.7457   -0.9477 H   0  0  0  0  0  0  0  0  0  0  0  0
  -10.4973    5.0998   -0.3159 H   0  0  0  0  0  0  0  0  0  0  0  0
   -1.5021    3.9795   -1.8905 H   0  0  0  0  0  0  0  0  0  0  0  0
   -0.9898    4.5934   -0.2971 H   0  0  0  0  0  0  0  0  0  0  0  0
   -7.5013    5.4367    0.6784 H   0  0  0  0  0  0  0  0  0  0  0  0
   -8.8177    5.5542   -2.1126 H   0  0  0  0  0  0  0  0  0  0  0  0
   -2.6392   -2.8096    5.2767 H   0  0  0  0  0  0  0  0  0  0  0  0
   -1.4740   -3.1365    6.5315 H   0  0  0  0  0  0  0  0  0  0  0  0
   -9.0551    3.4760   -0.0946 H   0  0  0  0  0  0  0  0  0  0  0  0
   -7.3878    2.9558   -0.1512 H   0  0  0  0  0  0  0  0  0  0  0  0
   -5.4143    5.7880    0.6848 H   0  0  0  0  0  0  0  0  0  0  0  0
    0.0978    2.2810   -2.6159 H   0  0  0  0  0  0  0  0  0  0  0  0
    1.8486    0.1163    1.2803 H   0  0  0  0  0  0  0  0  0  0  0  0
   -8.7367    7.7536   -1.7657 H   0  0  0  0  0  0  0  0  0  0  0  0
  1 15  2  0  0  0  0
  1 16  1  0  0  0  0
  1 31  1  0  0  0  0
  2 17  2  0  0  0  0
  2 18  1  0  0  0  0
  2 32  1  0  0  0  0
  3  4  2  0  0  0  0
  3  5  1  0  0  0  0
  3 17  1  0  0  0  0
  4 15  1  0  0  0  0
  4 18  1  0  0  0  0
  5 16  2  0  0  0  0
  5 19  1  0  0  0  0
  6 13  1  0  0  0  0
  6 21  1  0  0  0  0
  6 22  2  0  0  0  0
  7  8  1  1  0  0  0
  7 26  1  0  0  0  0
  7 33  1  0  0  0  0
  8 10  1  1  0  0  0
  8 27  1  0  0  0  0
  8 34  1  0  0  0  0
  9  7  1  6  0  0  0
  9 12  1  0  0  0  0
  9 25  1  0  0  0  0
  9 35  1  0  0  0  0
 10 18  1  0  0  0  0
 10 25  1  0  0  0  0
 10 36  1  1  0  0  0
 11 14  1  0  0  0  0
 11 37  1  0  0  0  0
 11 38  1  0  0  0  0
 11 39  1  0  0  0  0
 12 29  1  0  0  0  0
 12 40  1  0  0  0  0
 12 41  1  0  0  0  0
 13 14  1  0  0  0  0
 13 20  1  0  0  0  0
 13 42  1  1  0  0  0
 14 28  1  0  0  0  0
 14 43  1  6  0  0  0
 19 44  1  0  0  0  0
 19 45  1  0  0  0  0
 20 46  1  0  0  0  0
 20 47  1  0  0  0  0
 21 30  1  0  0  0  0
 21 48  1  0  0  0  0
 23 30  2  0  0  0  0
 24 30  2  0  0  0  0
 26 49  1  0  0  0  0
 27 50  1  0  0  0  0
 28 51  1  0  0  0  0
 29 30  1  0  0  0  0
M  END
$$$$
DrugBank_3014
 OpenBabel01151909533D

 32 32  0  0  0  0  0  0  0  0999 V2000
   -2.2966   -3.1779    2.2184 C   0  0  0  0  0  0  0  0  0  0  0  0
   -1.8852   -2.9810    3.5365 C   0  0  0  0  0  0  0  0  0  0  0  0
   -2.3262   -2.1036    1.3291 C   0  0  0  0  0  0  0  0  0  0  0  0
   -1.5333   -0.6355    3.0764 C   0  0  0  0  0  0  0  0  0  0  0  0
   -1.5036   -1.7098    3.9656 C   0  0  0  0  0  0  0  0  0  0  0  0
   -1.9447   -0.8324    1.7581 C   0  0  0  0  0  0  0  0  0  0  0  0
   -3.4088    0.5276    0.2816 C   0  0  0  0  0  0  0  0  0  0  0  0
   -1.0303    0.0529   -0.3762 C   0  0  0  0  0  0  0  0  0  0  0  0
   -1.5360    1.6525    1.4396 C   0  0  0  0  0  0  0  0  0  0  0  0
   -1.0623   -1.5003    5.3748 C   0  0  0  0  0  0  0  0  0  0  0  0
    0.4527   -1.6958    5.5336 C   0  0  0  0  0  0  0  0  0  0  0  0
   -1.9788    0.3467    0.7827 N   0  3  0  0  0  0  0  0  0  0  0  0
   -1.7326   -2.4203    6.2542 O   0  0  0  0  0  0  0  0  0  0  0  0
   -1.3964   -0.1722    5.8146 O   0  0  0  0  0  0  0  0  0  0  0  0
    1.1528   -0.8298    4.7653 F   0  0  0  0  0  0  0  0  0  0  0  0
    0.8383   -1.5021    6.8140 F   0  0  0  0  0  0  0  0  0  0  0  0
    0.8239   -2.9445    5.1751 F   0  0  0  0  0  0  0  0  0  0  0  0
   -2.5943   -4.1676    1.8846 H   0  0  0  0  0  0  0  0  0  0  0  0
   -1.8650   -3.8239    4.2226 H   0  0  0  0  0  0  0  0  0  0  0  0
   -2.6490   -2.2673    0.3045 H   0  0  0  0  0  0  0  0  0  0  0  0
   -1.2356    0.3552    3.4120 H   0  0  0  0  0  0  0  0  0  0  0  0
   -3.4155    1.3708   -0.4116 H   0  0  0  0  0  0  0  0  0  0  0  0
   -3.7064   -0.3953   -0.2198 H   0  0  0  0  0  0  0  0  0  0  0  0
   -4.0436    0.7263    1.1473 H   0  0  0  0  0  0  0  0  0  0  0  0
   -1.0668    0.9021   -1.0610 H   0  0  0  0  0  0  0  0  0  0  0  0
   -0.0280   -0.0757    0.0367 H   0  0  0  0  0  0  0  0  0  0  0  0
   -1.3735   -0.8607   -0.8654 H   0  0  0  0  0  0  0  0  0  0  0  0
   -1.5873    2.4399    0.6854 H   0  0  0  0  0  0  0  0  0  0  0  0
   -2.2168    1.8574    2.2680 H   0  0  0  0  0  0  0  0  0  0  0  0
   -0.5132    1.5169    1.7964 H   0  0  0  0  0  0  0  0  0  0  0  0
   -1.4302   -2.2657    7.1649 H   0  0  0  0  0  0  0  0  0  0  0  0
   -1.1001   -0.0586    6.7335 H   0  0  0  0  0  0  0  0  0  0  0  0
  1  2  2  0  0  0  0
  1  3  1  0  0  0  0
  1 18  1  0  0  0  0
  2  5  1  0  0  0  0
  2 19  1  0  0  0  0
  3  6  2  0  0  0  0
  3 20  1  0  0  0  0
  4  5  2  0  0  0  0
  4  6  1  0  0  0  0
  4 21  1  0  0  0  0
  5 10  1  0  0  0  0
  6 12  1  0  0  0  0
  7 12  1  0  0  0  0
  7 22  1  0  0  0  0
  7 23  1  0  0  0  0
  7 24  1  0  0  0  0
  8 12  1  0  0  0  0
  8 25  1  0  0  0  0
  8 26  1  0  0  0  0
  8 27  1  0  0  0  0
  9 12  1  0  0  0  0
  9 28  1  0  0  0  0
  9 29  1  0  0  0  0
  9 30  1  0  0  0  0
 10 11  1  0  0  0  0
 10 13  1  0  0  0  0
 10 14  1  0  0  0  0
 11 15  1  0  0  0  0
 11 16  1  0  0  0  0
 11 17  1  0  0  0  0
 13 31  1  0  0  0  0
 14 32  1  0  0  0  0
M  CHG  1  12   1
M  END
$$$$
DrugBank_293
 OpenBabel01151909533D

167171  0  0  1  0  0  0  0  0999 V2000
    9.5099   15.5771    2.9082 C   0  0  0  0  0  0  0  0  0  0  0  0
    5.4200   15.7711    5.7622 C   0  0  0  0  0  0  0  0  0  0  0  0
    9.7262   15.1795    1.5889 C   0  0  0  0  0  0  0  0  0  0  0  0
   10.5230   15.4304    3.8558 C   0  0  0  0  0  0  0  0  0  0  0  0
    4.3293   16.6100    5.9824 C   0  0  0  0  0  0  0  0  0  0  0  0
    5.5205   14.5395    6.4195 C   0  0  0  0  0  0  0  0  0  0  0  0
   10.9554   14.6351    1.2171 C   0  0  0  0  0  0  0  0  0  0  0  0
   11.7522   14.8860    3.4841 C   0  0  0  0  0  0  0  0  0  0  0  0
    7.6072    3.3908    4.1349 C   0  0  0  0  0  0  0  0  0  0  0  0
    7.6295    2.3342    1.9624 C   0  0  0  0  0  0  0  0  0  0  0  0
    3.3069   16.2468    6.8636 C   0  0  0  0  0  0  0  0  0  0  0  0
    8.7787    2.7147    4.4758 C   0  0  0  0  0  0  0  0  0  0  0  0
    8.8010    1.6581    2.3032 C   0  0  0  0  0  0  0  0  0  0  0  0
    3.0932   13.1919    8.7971 C   0  0  0  0  0  0  0  0  0  0  0  0
    4.5019   14.1519    7.3126 C   0  0  0  0  0  0  0  0  0  0  0  0
   11.9685   14.4883    2.1647 C   0  0  0  0  0  0  0  0  0  0  0  0
    7.0326    3.2005    2.8782 C   0  0  0  0  0  0  0  0  0  0  0  0
    4.2815   13.0072    8.1287 C   0  0  0  0  0  0  0  0  0  0  0  0
    3.4207   15.0128    7.5136 C   0  0  0  0  0  0  0  0  0  0  0  0
    9.3756    1.8484    3.5599 C   0  0  0  0  0  0  0  0  0  0  0  0
    6.6413   -6.5384   -2.0159 C   0  0  0  0  0  0  0  0  0  0  0  0
    5.5127   -4.8747    0.5695 C   0  0  0  0  0  0  0  0  0  0  0  0
    4.5399   -4.6018    6.0518 C   0  0  0  0  0  0  0  0  0  0  0  0
    3.1932    9.4689    6.0984 C   0  0  0  0  0  0  0  0  0  0  0  0
   14.7135   11.8418    1.5264 C   0  0  0  0  0  0  0  0  0  0  0  0
    2.3825    6.3387    5.6506 C   0  0  0  0  0  0  0  0  0  0  0  0
    3.2942    4.0811    2.9215 C   0  0  0  0  0  0  0  0  0  0  0  0
    6.2499    9.9117    6.9902 C   0  0  0  0  0  0  0  0  0  0  0  0
   12.0585   11.0981    3.6188 C   0  0  0  0  0  0  0  0  0  0  0  0
    3.5183    0.9526    2.2546 C   0  0  0  0  0  0  0  0  0  0  0  0
    4.7450   -1.9823    1.7286 C   0  0  0  0  0  0  0  0  0  0  0  0
    9.5503   10.7059    5.5902 C   0  0  0  0  0  0  0  0  0  0  0  0
   13.3990   10.2892    7.1099 C   0  0  0  0  0  0  0  0  0  0  0  0
    2.0813   -0.3690   -1.0359 C   0  0  0  0  0  0  0  0  0  0  0  0
    7.1790   -5.1334   -2.1258 C   0  0  0  0  0  0  0  0  0  0  0  0
    7.6340   -4.8179   -0.7016 C   0  0  0  0  0  0  0  0  0  0  0  0
    6.7376   -5.6730    0.1765 C   0  0  2  0  0  0  0  0  0  0  0  0
   -0.0629    4.0454    3.7282 C   0  0  0  0  0  0  0  0  0  0  0  0
    6.1313    7.6173    2.3469 C   0  0  0  0  0  0  0  0  0  0  0  0
   13.2987   13.8991    1.7631 C   0  0  0  0  0  0  0  0  0  0  0  0
    5.7654    3.9325    2.5091 C   0  0  0  0  0  0  0  0  0  0  0  0
    5.1823   11.8023    8.2492 C   0  0  0  0  0  0  0  0  0  0  0  0
    4.5014   -4.6702    4.5365 C   0  0  0  0  0  0  0  0  0  0  0  0
    2.0167    8.6319    6.5311 C   0  0  0  0  0  0  0  0  0  0  0  0
   13.2350   10.1368    5.6177 C   0  0  0  0  0  0  0  0  0  0  0  0
    2.0513    0.2105    0.3570 C   0  0  0  0  0  0  0  0  0  0  0  0
    4.6677   -3.3086    3.8590 C   0  0  0  0  0  0  0  0  0  0  0  0
    8.2756    8.7120    4.6424 C   0  0  0  0  0  0  0  0  0  0  0  0
    7.9759    9.4023    3.3096 C   0  0  0  0  0  0  0  0  0  0  0  0
   13.3425   12.3745    1.9166 C   0  0  2  0  0  0  0  0  0  0  0  0
    1.9271    5.4013    4.5359 C   0  0  2  0  0  0  0  0  0  0  0  0
    4.4999    3.1492    2.8765 C   0  0  2  0  0  0  0  0  0  0  0  0
    5.0390   10.8346    7.0688 C   0  0  2  0  0  0  0  0  0  0  0  0
   11.9847   10.8582    5.1214 C   0  0  2  0  0  0  0  0  0  0  0  0
    3.3830    0.0007    1.0729 C   0  0  2  0  0  0  0  0  0  0  0  0
    4.5946   -3.3760    2.3284 C   0  0  2  0  0  0  0  0  0  0  0  0
    8.4389    9.6858    5.8174 C   0  0  2  0  0  0  0  0  0  0  0  0
    0.6692    4.6169    4.9364 C   0  0  2  0  0  0  0  0  0  0  0  0
    2.5814   14.4043    8.4194 N   0  0  0  0  0  0  0  0  0  0  0  0
    6.4140   -6.7906   -0.6679 N   0  0  0  0  0  0  0  0  0  0  0  0
    4.3879   -5.8408    6.6364 N   0  0  0  0  0  0  0  0  0  0  0  0
   14.7696   11.4233    0.2135 N   0  0  0  0  0  0  0  0  0  0  0  0
    5.6387   -4.1959    1.7697 N   0  0  0  0  0  0  0  0  0  0  0  0
    1.7829    7.5870    5.5621 N   0  0  0  0  0  0  0  0  0  0  0  0
    3.8688    9.9952    7.1901 N   0  0  0  0  0  0  0  0  0  0  0  0
   13.0948   11.9553    3.2764 N   0  0  0  0  0  0  0  0  0  0  0  0
    3.0413    4.5420    4.2061 N   0  0  0  0  0  0  0  0  0  0  0  0
    4.2025    2.1118    1.9167 N   0  0  0  0  0  0  0  0  0  0  0  0
    3.5203   -1.3478    1.5741 N   0  0  0  0  0  0  0  0  0  0  0  0
   10.7835   10.1026    5.3892 N   0  0  0  0  0  0  0  0  0  0  0  0
    7.2134   10.3921    6.1142 N   0  0  0  0  0  0  0  0  0  0  0  0
    6.4183   -7.2854   -2.9561 O   0  0  0  0  0  0  0  0  0  0  0  0
    4.5304   -4.8754   -0.1631 O   0  0  0  0  0  0  0  0  0  0  0  0
    4.7100   -3.5658    6.6880 O   0  0  0  0  0  0  0  0  0  0  0  0
    3.4995    9.6474    4.9225 O   0  0  0  0  0  0  0  0  0  0  0  0
   15.6585   11.7500    2.3063 O   0  0  0  0  0  0  0  0  0  0  0  0
    3.1580    5.9950    6.5404 O   0  0  0  0  0  0  0  0  0  0  0  0
    2.6142    4.3438    1.9318 O   0  0  0  0  0  0  0  0  0  0  0  0
    6.3230    8.8499    7.6052 O   0  0  0  0  0  0  0  0  0  0  0  0
   11.2567   10.6128    2.8233 O   0  0  0  0  0  0  0  0  0  0  0  0
    3.1001    0.6867    3.3796 O   0  0  0  0  0  0  0  0  0  0  0  0
    5.8362   -1.4828    1.4628 O   0  0  0  0  0  0  0  0  0  0  0  0
    9.3501   11.9185    5.5630 O   0  0  0  0  0  0  0  0  0  0  0  0
   12.9486    9.5017    7.9317 O   0  0  0  0  0  0  0  0  0  0  0  0
    3.0451   -0.9539   -1.5130 O   0  0  0  0  0  0  0  0  0  0  0  0
    9.2649   -0.9272    4.4473 O   0  0  0  0  0  0  0  0  0  0  0  0
   10.9420   -0.8954    2.5760 O   0  0  0  0  0  0  0  0  0  0  0  0
   14.0877   11.4077    7.4468 O   0  0  0  0  0  0  0  0  0  0  0  0
    0.9264   -0.1563   -1.7138 O   0  0  0  0  0  0  0  0  0  0  0  0
    1.0050    3.5296    5.7971 O   0  0  0  0  0  0  0  0  0  0  0  0
   11.7097   -0.8439    4.9410 O   0  0  0  0  0  0  0  0  0  0  0  0
   10.5193    1.1897    3.8922 O   0  0  0  0  0  0  0  0  0  0  0  0
    7.8104    8.1749    1.9792 S   0  0  0  0  0  0  0  0  0  0  0  0
   10.5202   -0.4546    3.8930 S   0  0  0  0  0  0  0  0  0  0  0  0
    8.5532   16.0023    3.1973 H   0  0  0  0  0  0  0  0  0  0  0  0
    6.2022   16.0752    5.0720 H   0  0  0  0  0  0  0  0  0  0  0  0
    8.9379   15.2947    0.8507 H   0  0  0  0  0  0  0  0  0  0  0  0
   10.3553   15.7409    4.8829 H   0  0  0  0  0  0  0  0  0  0  0  0
    4.2716   17.5622    5.4612 H   0  0  0  0  0  0  0  0  0  0  0  0
    6.3766   13.8964    6.2365 H   0  0  0  0  0  0  0  0  0  0  0  0
   11.1149   14.3279    0.1868 H   0  0  0  0  0  0  0  0  0  0  0  0
   12.5356   14.7754    4.2292 H   0  0  0  0  0  0  0  0  0  0  0  0
    7.1490    4.0638    4.8547 H   0  0  0  0  0  0  0  0  0  0  0  0
    7.1887    2.1797    0.9809 H   0  0  0  0  0  0  0  0  0  0  0  0
    2.4588   16.9010    7.0351 H   0  0  0  0  0  0  0  0  0  0  0  0
    9.2217    2.8673    5.4563 H   0  0  0  0  0  0  0  0  0  0  0  0
    9.2612    0.9850    1.5853 H   0  0  0  0  0  0  0  0  0  0  0  0
    2.5646   12.5698    9.5062 H   0  0  0  0  0  0  0  0  0  0  0  0
    8.0080   -5.0852   -2.8360 H   0  0  0  0  0  0  0  0  0  0  0  0
    6.3708   -4.4689   -2.4468 H   0  0  0  0  0  0  0  0  0  0  0  0
    8.6783   -5.1333   -0.5819 H   0  0  0  0  0  0  0  0  0  0  0  0
    7.5784   -3.7477   -0.4788 H   0  0  0  0  0  0  0  0  0  0  0  0
    7.2586   -6.0074    1.0874 H   0  0  0  0  0  0  0  0  0  0  0  0
    0.5869    3.3876    3.1409 H   0  0  0  0  0  0  0  0  0  0  0  0
   -0.4405    4.8411    3.0790 H   0  0  0  0  0  0  0  0  0  0  0  0
   -0.9103    3.4323    4.0546 H   0  0  0  0  0  0  0  0  0  0  0  0
    5.8303    6.8475    1.6320 H   0  0  0  0  0  0  0  0  0  0  0  0
    5.4374    8.4587    2.2777 H   0  0  0  0  0  0  0  0  0  0  0  0
    6.0907    7.2025    3.3570 H   0  0  0  0  0  0  0  0  0  0  0  0
   13.5317   14.1839    0.7280 H   0  0  0  0  0  0  0  0  0  0  0  0
   14.0813   14.3686    2.3740 H   0  0  0  0  0  0  0  0  0  0  0  0
    5.7552    4.9196    2.9909 H   0  0  0  0  0  0  0  0  0  0  0  0
    5.7893    4.1388    1.4308 H   0  0  0  0  0  0  0  0  0  0  0  0
    6.2261   12.1298    8.3480 H   0  0  0  0  0  0  0  0  0  0  0  0
    4.9499   11.2924    9.1935 H   0  0  0  0  0  0  0  0  0  0  0  0
    5.3277   -5.3216    4.2259 H   0  0  0  0  0  0  0  0  0  0  0  0
    3.5701   -5.1522    4.2186 H   0  0  0  0  0  0  0  0  0  0  0  0
    2.2247    8.1796    7.5053 H   0  0  0  0  0  0  0  0  0  0  0  0
    1.1232    9.2586    6.6061 H   0  0  0  0  0  0  0  0  0  0  0  0
   13.1764    9.0595    5.4171 H   0  0  0  0  0  0  0  0  0  0  0  0
   14.1450   10.4825    5.1124 H   0  0  0  0  0  0  0  0  0  0  0  0
    1.2328   -0.2919    0.8880 H   0  0  0  0  0  0  0  0  0  0  0  0
    1.7660    1.2683    0.3070 H   0  0  0  0  0  0  0  0  0  0  0  0
    5.6392   -2.8910    4.1556 H   0  0  0  0  0  0  0  0  0  0  0  0
    3.9085   -2.6148    4.2416 H   0  0  0  0  0  0  0  0  0  0  0  0
    7.4615    8.0147    4.8819 H   0  0  0  0  0  0  0  0  0  0  0  0
    9.1901    8.1131    4.5444 H   0  0  0  0  0  0  0  0  0  0  0  0
    8.7816   10.0891    3.0338 H   0  0  0  0  0  0  0  0  0  0  0  0
    7.0438    9.9727    3.3622 H   0  0  0  0  0  0  0  0  0  0  0  0
   12.5803   11.8906    1.2948 H   0  0  0  0  0  0  0  0  0  0  0  0
    1.7237    6.0027    3.6415 H   0  0  0  0  0  0  0  0  0  0  0  0
    4.6071    2.6539    3.8487 H   0  0  0  0  0  0  0  0  0  0  0  0
    4.9383   11.3760    6.1208 H   0  0  0  0  0  0  0  0  0  0  0  0
   11.8609   11.8221    5.6296 H   0  0  0  0  0  0  0  0  0  0  0  0
    4.2250    0.1613    0.3889 H   0  0  0  0  0  0  0  0  0  0  0  0
    3.6445   -3.8070    1.9949 H   0  0  0  0  0  0  0  0  0  0  0  0
    8.6821    9.1157    6.7223 H   0  0  0  0  0  0  0  0  0  0  0  0
   -0.0236    5.2645    5.4862 H   0  0  0  0  0  0  0  0  0  0  0  0
    1.7130   14.7966    8.7564 H   0  0  0  0  0  0  0  0  0  0  0  0
    6.0188   -7.6607   -0.3248 H   0  0  0  0  0  0  0  0  0  0  0  0
    4.3987   -5.9086    7.6487 H   0  0  0  0  0  0  0  0  0  0  0  0
    4.2656   -6.6878    6.0906 H   0  0  0  0  0  0  0  0  0  0  0  0
   15.6431   11.0507   -0.1439 H   0  0  0  0  0  0  0  0  0  0  0  0
   13.9690   11.4746   -0.4084 H   0  0  0  0  0  0  0  0  0  0  0  0
    6.5135   -4.2806    2.2831 H   0  0  0  0  0  0  0  0  0  0  0  0
    1.1551    7.7731    4.7855 H   0  0  0  0  0  0  0  0  0  0  0  0
    3.5237    9.7798    8.1209 H   0  0  0  0  0  0  0  0  0  0  0  0
   13.7038   12.3019    4.0118 H   0  0  0  0  0  0  0  0  0  0  0  0
    3.6711    4.2612    4.9519 H   0  0  0  0  0  0  0  0  0  0  0  0
    4.5063    2.2357    0.9554 H   0  0  0  0  0  0  0  0  0  0  0  0
    2.6782   -1.8568    1.8260 H   0  0  0  0  0  0  0  0  0  0  0  0
   10.8659    9.0935    5.4698 H   0  0  0  0  0  0  0  0  0  0  0  0
    7.0489   11.2850    5.6588 H   0  0  0  0  0  0  0  0  0  0  0  0
   14.3922   11.9508    6.6885 H   0  0  0  0  0  0  0  0  0  0  0  0
    0.2345    0.3258   -1.2123 H   0  0  0  0  0  0  0  0  0  0  0  0
    1.5723    2.9364    5.2816 H   0  0  0  0  0  0  0  0  0  0  0  0
   12.5869   -0.4341    4.7549 H   0  0  0  0  0  0  0  0  0  0  0  0
  1  3  2  0  0  0  0
  1  4  1  0  0  0  0
  1 95  1  0  0  0  0
  2  5  2  0  0  0  0
  2  6  1  0  0  0  0
  2 96  1  0  0  0  0
  3  7  1  0  0  0  0
  3 97  1  0  0  0  0
  4  8  2  0  0  0  0
  4 98  1  0  0  0  0
  5 11  1  0  0  0  0
  5 99  1  0  0  0  0
  6 15  2  0  0  0  0
  6100  1  0  0  0  0
  7 16  2  0  0  0  0
  7101  1  0  0  0  0
  8 16  1  0  0  0  0
  8102  1  0  0  0  0
  9 12  2  0  0  0  0
  9 17  1  0  0  0  0
  9103  1  0  0  0  0
 10 13  1  0  0  0  0
 10 17  2  0  0  0  0
 10104  1  0  0  0  0
 11 19  2  0  0  0  0
 11105  1  0  0  0  0
 12 20  1  0  0  0  0
 12106  1  0  0  0  0
 13 20  2  0  0  0  0
 13107  1  0  0  0  0
 14 18  2  0  0  0  0
 14 59  1  0  0  0  0
 14108  1  0  0  0  0
 15 18  1  0  0  0  0
 15 19  1  0  0  0  0
 16 40  1  0  0  0  0
 17 41  1  0  0  0  0
 18 42  1  0  0  0  0
 19 59  1  0  0  0  0
 20 92  1  0  0  0  0
 21 35  1  0  0  0  0
 21 60  1  0  0  0  0
 21 72  2  0  0  0  0
 22 37  1  0  0  0  0
 22 63  1  0  0  0  0
 22 73  2  0  0  0  0
 23 43  1  0  0  0  0
 23 61  1  0  0  0  0
 23 74  2  0  0  0  0
 24 44  1  0  0  0  0
 24 65  1  0  0  0  0
 24 75  2  0  0  0  0
 25 50  1  0  0  0  0
 25 62  1  0  0  0  0
 25 76  2  0  0  0  0
 26 51  1  0  0  0  0
 26 64  1  0  0  0  0
 26 77  2  0  0  0  0
 27 52  1  0  0  0  0
 27 67  1  0  0  0  0
 27 78  2  0  0  0  0
 28 53  1  0  0  0  0
 28 71  1  0  0  0  0
 28 79  2  0  0  0  0
 29 54  1  0  0  0  0
 29 66  1  0  0  0  0
 29 80  2  0  0  0  0
 30 55  1  0  0  0  0
 30 68  1  0  0  0  0
 30 81  2  0  0  0  0
 31 56  1  0  0  0  0
 31 69  1  0  0  0  0
 31 82  2  0  0  0  0
 32 57  1  0  0  0  0
 32 70  1  0  0  0  0
 32 83  2  0  0  0  0
 33 45  1  0  0  0  0
 33 84  2  0  0  0  0
 33 88  1  0  0  0  0
 34 46  1  0  0  0  0
 34 85  2  0  0  0  0
 34 89  1  0  0  0  0
 35 36  1  0  0  0  0
 35109  1  0  0  0  0
 35110  1  0  0  0  0
 36 37  1  0  0  0  0
 36111  1  0  0  0  0
 36112  1  0  0  0  0
 37 60  1  0  0  0  0
 37113  1  1  0  0  0
 38 58  1  0  0  0  0
 38114  1  0  0  0  0
 38115  1  0  0  0  0
 38116  1  0  0  0  0
 39 93  1  0  0  0  0
 39117  1  0  0  0  0
 39118  1  0  0  0  0
 39119  1  0  0  0  0
 40 50  1  0  0  0  0
 40120  1  0  0  0  0
 40121  1  0  0  0  0
 41 52  1  0  0  0  0
 41122  1  0  0  0  0
 41123  1  0  0  0  0
 42 53  1  0  0  0  0
 42124  1  0  0  0  0
 42125  1  0  0  0  0
 43 47  1  0  0  0  0
 43126  1  0  0  0  0
 43127  1  0  0  0  0
 44 64  1  0  0  0  0
 44128  1  0  0  0  0
 44129  1  0  0  0  0
 45 54  1  0  0  0  0
 45130  1  0  0  0  0
 45131  1  0  0  0  0
 46 55  1  0  0  0  0
 46132  1  0  0  0  0
 46133  1  0  0  0  0
 47 56  1  0  0  0  0
 47134  1  0  0  0  0
 47135  1  0  0  0  0
 48 49  1  0  0  0  0
 48 57  1  0  0  0  0
 48136  1  0  0  0  0
 48137  1  0  0  0  0
 49 93  1  0  0  0  0
 49138  1  0  0  0  0
 49139  1  0  0  0  0
 50 66  1  0  0  0  0
 50140  1  6  0  0  0
 51 58  1  0  0  0  0
 51 67  1  0  0  0  0
 51141  1  6  0  0  0
 52 68  1  0  0  0  0
 52142  1  1  0  0  0
 53 65  1  0  0  0  0
 53143  1  6  0  0  0
 54 70  1  0  0  0  0
 54144  1  1  0  0  0
 55 69  1  0  0  0  0
 55145  1  6  0  0  0
 56 63  1  0  0  0  0
 56146  1  6  0  0  0
 57 71  1  0  0  0  0
 57147  1  1  0  0  0
 58 90  1  0  0  0  0
 58148  1  1  0  0  0
 59149  1  0  0  0  0
 60150  1  0  0  0  0
 61151  1  0  0  0  0
 61152  1  0  0  0  0
 62153  1  0  0  0  0
 62154  1  0  0  0  0
 63155  1  0  0  0  0
 64156  1  0  0  0  0
 65157  1  0  0  0  0
 66158  1  0  0  0  0
 67159  1  0  0  0  0
 68160  1  0  0  0  0
 69161  1  0  0  0  0
 70162  1  0  0  0  0
 71163  1  0  0  0  0
 86 94  2  0  0  0  0
 87 94  2  0  0  0  0
 88164  1  0  0  0  0
 89165  1  0  0  0  0
 90166  1  0  0  0  0
 91 94  1  0  0  0  0
 91167  1  0  0  0  0
 92 94  1  0  0  0  0
M  END
$$$$
DrugBank_3028
 OpenBabel01151909533D

 47 49  0  0  1  0  0  0  0  0999 V2000
    1.1182   -0.5184    5.1349 C   0  0  0  0  0  0  0  0  0  0  0  0
   -2.1322   -0.1230    2.2690 C   0  0  0  0  0  0  0  0  0  0  0  0
   -1.2345   -0.9935    3.9951 C   0  0  0  0  0  0  0  0  0  0  0  0
   -0.3236   -0.0630    3.5209 C   0  0  0  0  0  0  0  0  0  0  0  0
   -0.8714   -1.7051    5.1342 C   0  0  0  0  0  0  0  0  0  0  0  0
   -5.6461    5.8619    1.0372 C   0  0  0  0  0  0  0  0  0  0  0  0
    0.1385    2.0525   -0.6912 C   0  0  2  0  0  0  0  0  0  0  0  0
    0.3852    0.9698    0.3367 C   0  0  2  0  0  0  0  0  0  0  0  0
   -1.2921    2.4556   -0.3738 C   0  0  2  0  0  0  0  0  0  0  0  0
   -0.3571    1.5191    1.5483 C   0  0  2  0  0  0  0  0  0  0  0  0
   -7.8805    6.9613    0.9594 C   0  0  0  0  0  0  0  0  0  0  0  0
   -1.6307    3.8699   -0.8096 C   0  0  0  0  0  0  0  0  0  0  0  0
   -7.1355    5.6689    1.2642 C   0  0  2  0  0  0  0  0  0  0  0  0
    0.8782    0.2328    4.0381 N   0  0  0  0  0  0  0  0  0  0  0  0
    0.3297   -1.4580    5.7103 N   0  0  0  0  0  0  0  0  0  0  0  0
   -2.3567   -1.0206    3.2058 N   0  0  0  0  0  0  0  0  0  0  0  0
   -0.9134    0.4840    2.4171 N   0  0  0  0  0  0  0  0  0  0  0  0
   -1.7341   -2.6687    5.6840 N   0  0  0  0  0  0  0  0  0  0  0  0
   -7.3296    5.2644    2.6548 N   0  0  0  0  0  0  0  0  0  0  0  0
   -5.2228    5.5051   -0.2848 N   0  0  0  0  0  0  0  0  0  0  0  0
   -4.8734    6.2583    1.9033 O   0  0  0  0  0  0  0  0  0  0  0  0
   -3.6512    5.7321   -2.2914 O   0  0  0  0  0  0  0  0  0  0  0  0
   -2.9126    6.6086   -0.0501 O   0  0  0  0  0  0  0  0  0  0  0  0
   -1.4267    2.3479    1.0536 O   0  0  0  0  0  0  0  0  0  0  0  0
    0.2665    1.5431   -2.0049 O   0  0  0  0  0  0  0  0  0  0  0  0
    1.7661    0.8230    0.6176 O   0  0  0  0  0  0  0  0  0  0  0  0
   -2.9839    4.1437   -0.4801 O   0  0  0  0  0  0  0  0  0  0  0  0
   -3.6063    5.6118   -0.8454 S   0  0  0  0  0  0  0  0  0  0  0  0
    2.0720   -0.3463    5.6224 H   0  0  0  0  0  0  0  0  0  0  0  0
   -2.8087    0.1287    1.4637 H   0  0  0  0  0  0  0  0  0  0  0  0
    0.8479    2.8789   -0.5638 H   0  0  0  0  0  0  0  0  0  0  0  0
   -0.0037    0.0013    0.0010 H   0  0  0  0  0  0  0  0  0  0  0  0
   -2.0065    1.7626   -0.8333 H   0  0  0  0  0  0  0  0  0  0  0  0
    0.2955    2.1397    2.1996 H   0  0  0  0  0  0  0  0  0  0  0  0
   -7.5243    7.7742    1.6018 H   0  0  0  0  0  0  0  0  0  0  0  0
   -8.9564    6.8461    1.1288 H   0  0  0  0  0  0  0  0  0  0  0  0
   -7.7299    7.2784   -0.0791 H   0  0  0  0  0  0  0  0  0  0  0  0
   -1.5021    3.9795   -1.8905 H   0  0  0  0  0  0  0  0  0  0  0  0
   -0.9898    4.5934   -0.2971 H   0  0  0  0  0  0  0  0  0  0  0  0
   -7.4986    4.8630    0.6172 H   0  0  0  0  0  0  0  0  0  0  0  0
   -2.6392   -2.8096    5.2767 H   0  0  0  0  0  0  0  0  0  0  0  0
   -1.4740   -3.1365    6.5315 H   0  0  0  0  0  0  0  0  0  0  0  0
   -6.6374    4.6832    3.0744 H   0  0  0  0  0  0  0  0  0  0  0  0
   -8.2272    5.4084    3.0633 H   0  0  0  0  0  0  0  0  0  0  0  0
   -5.9364    5.1622   -0.9408 H   0  0  0  0  0  0  0  0  0  0  0  0
    0.0978    2.2810   -2.6159 H   0  0  0  0  0  0  0  0  0  0  0  0
    1.8486    0.1163    1.2803 H   0  0  0  0  0  0  0  0  0  0  0  0
  1 14  2  0  0  0  0
  1 15  1  0  0  0  0
  1 29  1  0  0  0  0
  2 16  2  0  0  0  0
  2 17  1  0  0  0  0
  2 30  1  0  0  0  0
  3  4  2  0  0  0  0
  3  5  1  0  0  0  0
  3 16  1  0  0  0  0
  4 14  1  0  0  0  0
  4 17  1  0  0  0  0
  5 15  2  0  0  0  0
  5 18  1  0  0  0  0
  6 13  1  0  0  0  0
  6 20  1  0  0  0  0
  6 21  2  0  0  0  0
  7  8  1  1  0  0  0
  7 25  1  0  0  0  0
  7 31  1  0  0  0  0
  8 10  1  1  0  0  0
  8 26  1  0  0  0  0
  8 32  1  0  0  0  0
  9  7  1  6  0  0  0
  9 12  1  0  0  0  0
  9 24  1  0  0  0  0
  9 33  1  0  0  0  0
 10 17  1  0  0  0  0
 10 24  1  0  0  0  0
 10 34  1  1  0  0  0
 11 13  1  0  0  0  0
 11 35  1  0  0  0  0
 11 36  1  0  0  0  0
 11 37  1  0  0  0  0
 12 27  1  0  0  0  0
 12 38  1  0  0  0  0
 12 39  1  0  0  0  0
 13 19  1  0  0  0  0
 13 40  1  6  0  0  0
 18 41  1  0  0  0  0
 18 42  1  0  0  0  0
 19 43  1  0  0  0  0
 19 44  1  0  0  0  0
 20 28  1  0  0  0  0
 20 45  1  0  0  0  0
 22 28  2  0  0  0  0
 23 28  2  0  0  0  0
 25 46  1  0  0  0  0
 26 47  1  0  0  0  0
 27 28  1  0  0  0  0
M  END
$$$$
DrugBank_3046
 OpenBabel01151909533D

 10  9  0  0  0  0  0  0  0  0999 V2000
    1.3029    1.3238   -1.7356 C   0  0  0  0  0  0  0  0  0  0  0  0
   -0.7608   -0.6236    0.0866 C   0  0  0  0  0  0  0  0  0  0  0  0
    0.4196    0.2714    0.3990 C   0  0  0  0  0  0  0  0  0  0  0  0
    0.9159    0.8629   -0.8007 N   0  0  0  0  0  0  0  0  0  0  0  0
    1.6735    1.7652   -2.6311 H   0  0  0  0  0  0  0  0  0  0  0  0
   -1.5664   -0.0491   -0.3803 H   0  0  0  0  0  0  0  0  0  0  0  0
   -0.4691   -1.4283   -0.5961 H   0  0  0  0  0  0  0  0  0  0  0  0
   -1.1501   -1.0871    0.9990 H   0  0  0  0  0  0  0  0  0  0  0  0
    1.2238   -0.3052    0.8658 H   0  0  0  0  0  0  0  0  0  0  0  0
    0.1237    1.0683    1.0878 H   0  0  0  0  0  0  0  0  0  0  0  0
  1  4  3  0  0  0  0
  1  5  1  0  0  0  0
  2  3  1  0  0  0  0
  2  6  1  0  0  0  0
  2  7  1  0  0  0  0
  2  8  1  0  0  0  0
  3  4  1  0  0  0  0
  3  9  1  0  0  0  0
  3 10  1  0  0  0  0
M  END
$$$$
DrugBank_320
 OpenBabel01151909533D

 18 18  0  0  1  0  0  0  0  0999 V2000
    0.8266    0.5759   -0.7566 C   0  0  2  0  0  0  0  0  0  0  0  0
   -0.4621    1.3086   -0.3282 C   0  0  2  0  0  0  0  0  0  0  0  0
    1.3328   -0.3257    0.3888 C   0  0  1  0  0  0  0  0  0  0  0  0
   -1.5736    0.3514    0.1528 C   0  0  2  0  0  0  0  0  0  0  0  0
    0.2696   -1.3270    0.8887 C   0  0  1  0  0  0  0  0  0  0  0  0
   -1.0691   -0.6367    1.2262 C   0  0  1  0  0  0  0  0  0  0  0  0
    2.0981    1.7853   -1.1830 Cl  0  0  0  0  0  0  0  0  0  0  0  0
   -1.0774    2.4003   -1.6208 Cl  0  0  0  0  0  0  0  0  0  0  0  0
    2.8555   -1.1802   -0.0498 Cl  0  0  0  0  0  0  0  0  0  0  0  0
   -2.3246   -0.5492   -1.2151 Cl  0  0  0  0  0  0  0  0  0  0  0  0
   -0.0017   -2.6637   -0.2884 Cl  0  0  0  0  0  0  0  0  0  0  0  0
   -0.8742    0.2609    2.7852 Cl  0  0  0  0  0  0  0  0  0  0  0  0
    0.6533   -0.0126   -1.6641 H   0  0  0  0  0  0  0  0  0  0  0  0
   -0.2164    1.9841    0.5003 H   0  0  0  0  0  0  0  0  0  0  0  0
    1.6171    0.3146    1.2328 H   0  0  0  0  0  0  0  0  0  0  0  0
   -2.3994    0.9436    0.5652 H   0  0  0  0  0  0  0  0  0  0  0  0
    0.6510   -1.8346    1.7829 H   0  0  0  0  0  0  0  0  0  0  0  0
   -1.8384   -1.3864    1.4432 H   0  0  0  0  0  0  0  0  0  0  0  0
  1  2  1  1  0  0  0
  1  7  1  0  0  0  0
  1 13  1  0  0  0  0
  2  4  1  1  0  0  0
  2  8  1  0  0  0  0
  2 14  1  0  0  0  0
  3  1  1  6  0  0  0
  3  9  1  0  0  0  0
  3 15  1  0  0  0  0
  4  6  1  1  0  0  0
  4 10  1  0  0  0  0
  4 16  1  0  0  0  0
  5  3  1  6  0  0  0
  5 11  1  0  0  0  0
  5 17  1  0  0  0  0
  6  5  1  6  0  0  0
  6 12  1  0  0  0  0
  6 18  1  0  0  0  0
M  END
$$$$
DrugBank_5609
 OpenBabel01151909533D

 30 31  0  0  0  0  0  0  0  0999 V2000
   -0.4966   -2.0341    0.4940 C   0  0  0  0  0  0  0  0  0  0  0  0
   -0.0479   -3.3542    0.5448 C   0  0  0  0  0  0  0  0  0  0  0  0
    3.4207   -2.9899   -0.7267 C   0  0  0  0  0  0  0  0  0  0  0  0
    0.3500   -1.0275    0.0392 C   0  0  0  0  0  0  0  0  0  0  0  0
    3.8693   -4.3100   -0.6758 C   0  0  0  0  0  0  0  0  0  0  0  0
    1.7243   -5.0072    0.1848 C   0  0  0  0  0  0  0  0  0  0  0  0
    1.2560   -3.6839    0.1403 C   0  0  0  0  0  0  0  0  0  0  0  0
    2.1168   -2.6602   -0.3222 C   0  0  0  0  0  0  0  0  0  0  0  0
    1.6484   -1.3369   -0.3665 C   0  0  0  0  0  0  0  0  0  0  0  0
    3.0228   -5.3167   -0.2210 C   0  0  0  0  0  0  0  0  0  0  0  0
    3.2977    0.4548    0.1128 C   0  0  0  0  0  0  0  0  0  0  0  0
    2.4914    0.0782   -2.2231 C   0  0  0  0  0  0  0  0  0  0  0  0
    2.4681   -0.2748   -0.8206 N   0  0  0  0  0  0  0  0  0  0  0  0
    2.4230   -7.8422   -0.2159 O   0  0  0  0  0  0  0  0  0  0  0  0
    4.6540   -7.0897   -1.1381 O   0  0  0  0  0  0  0  0  0  0  0  0
    4.2399   -7.1427    1.3299 O   0  0  0  0  0  0  0  0  0  0  0  0
    3.5858   -6.9685   -0.1583 S   0  0  0  0  0  0  0  0  0  0  0  0
   -1.5074   -1.7926    0.8098 H   0  0  0  0  0  0  0  0  0  0  0  0
   -0.7275   -4.1249    0.9024 H   0  0  0  0  0  0  0  0  0  0  0  0
    4.1131   -2.2328   -1.0874 H   0  0  0  0  0  0  0  0  0  0  0  0
   -0.0134   -0.0034    0.0037 H   0  0  0  0  0  0  0  0  0  0  0  0
    4.8823   -4.5413   -0.9946 H   0  0  0  0  0  0  0  0  0  0  0  0
    1.0708   -5.8029    0.5383 H   0  0  0  0  0  0  0  0  0  0  0  0
    3.8577    1.2335   -0.4115 H   0  0  0  0  0  0  0  0  0  0  0  0
    4.0063   -0.2222    0.5978 H   0  0  0  0  0  0  0  0  0  0  0  0
    2.6786    0.9239    0.8821 H   0  0  0  0  0  0  0  0  0  0  0  0
    3.1753    0.9148   -2.3886 H   0  0  0  0  0  0  0  0  0  0  0  0
    1.4917    0.3697   -2.5562 H   0  0  0  0  0  0  0  0  0  0  0  0
    2.8258   -0.7734   -2.8217 H   0  0  0  0  0  0  0  0  0  0  0  0
    3.6024   -7.0783    2.0796 H   0  0  0  0  0  0  0  0  0  0  0  0
  1  2  2  0  0  0  0
  1  4  1  0  0  0  0
  1 18  1  0  0  0  0
  2  7  1  0  0  0  0
  2 19  1  0  0  0  0
  3  5  2  0  0  0  0
  3  8  1  0  0  0  0
  3 20  1  0  0  0  0
  4  9  2  0  0  0  0
  4 21  1  0  0  0  0
  5 10  1  0  0  0  0
  5 22  1  0  0  0  0
  6  7  1  0  0  0  0
  6 10  2  0  0  0  0
  6 23  1  0  0  0  0
  7  8  2  0  0  0  0
  8  9  1  0  0  0  0
  9 13  1  0  0  0  0
 10 17  1  0  0  0  0
 11 13  1  0  0  0  0
 11 24  1  0  0  0  0
 11 25  1  0  0  0  0
 11 26  1  0  0  0  0
 12 13  1  0  0  0  0
 12 27  1  0  0  0  0
 12 28  1  0  0  0  0
 12 29  1  0  0  0  0
 14 17  2  0  0  0  0
 15 17  2  0  0  0  0
 16 17  1  0  0  0  0
 16 30  1  0  0  0  0
M  END
$$$$
DrugBank_3080
 OpenBabel01151909533D

 28 28  0  0  0  0  0  0  0  0999 V2000
    1.0092   -0.1101   -2.8578 C   0  0  0  0  0  0  0  0  0  0  0  0
   -0.2357   -0.0385   -0.7978 C   0  0  0  0  0  0  0  0  0  0  0  0
    0.2043    1.0882   -3.3528 C   0  0  0  0  0  0  0  0  0  0  0  0
   -1.0120    1.1573   -1.3418 C   0  0  0  0  0  0  0  0  0  0  0  0
    1.0302   -3.1786   -2.4236 C   0  0  0  0  0  0  0  0  0  0  0  0
    0.9621   -2.0406   -1.4116 C   0  0  0  0  0  0  0  0  0  0  0  0
   -0.3465   -3.7219   -2.7817 C   0  0  0  0  0  0  0  0  0  0  0  0
    0.2058   -0.8932   -1.9086 N   0  0  0  0  0  0  0  0  0  0  0  0
    0.5561   -6.1213   -3.3405 O   0  0  0  0  0  0  0  0  0  0  0  0
    0.0899   -4.5140   -5.2424 O   0  0  0  0  0  0  0  0  0  0  0  0
   -0.2031    1.9025   -2.2526 O   0  0  0  0  0  0  0  0  0  0  0  0
   -1.8016   -5.4887   -3.9158 O   0  0  0  0  0  0  0  0  0  0  0  0
   -0.2295   -5.0545   -3.9335 S   0  0  0  0  0  0  0  0  0  0  0  0
    1.2921   -0.7288   -3.7171 H   0  0  0  0  0  0  0  0  0  0  0  0
    1.9297    0.2435   -2.3752 H   0  0  0  0  0  0  0  0  0  0  0  0
    0.6302    0.3184   -0.2250 H   0  0  0  0  0  0  0  0  0  0  0  0
   -0.8839   -0.6031   -0.1179 H   0  0  0  0  0  0  0  0  0  0  0  0
    0.8231    1.7047   -4.0127 H   0  0  0  0  0  0  0  0  0  0  0  0
   -0.6785    0.7742   -3.9228 H   0  0  0  0  0  0  0  0  0  0  0  0
   -1.9366    0.8464   -1.8436 H   0  0  0  0  0  0  0  0  0  0  0  0
   -1.2903    1.8260   -0.5210 H   0  0  0  0  0  0  0  0  0  0  0  0
    1.6401   -3.9879   -2.0038 H   0  0  0  0  0  0  0  0  0  0  0  0
    1.5415   -2.8409   -3.3337 H   0  0  0  0  0  0  0  0  0  0  0  0
    0.4942   -2.3710   -0.4788 H   0  0  0  0  0  0  0  0  0  0  0  0
    1.9701   -1.6824   -1.1806 H   0  0  0  0  0  0  0  0  0  0  0  0
   -0.8625   -4.1106   -1.8987 H   0  0  0  0  0  0  0  0  0  0  0  0
   -0.9737   -2.9574   -3.2494 H   0  0  0  0  0  0  0  0  0  0  0  0
   -2.1251   -5.8711   -3.0663 H   0  0  0  0  0  0  0  0  0  0  0  0
  1  3  1  0  0  0  0
  1  8  1  0  0  0  0
  1 14  1  0  0  0  0
  1 15  1  0  0  0  0
  2  4  1  0  0  0  0
  2  8  1  0  0  0  0
  2 16  1  0  0  0  0
  2 17  1  0  0  0  0
  3 11  1  0  0  0  0
  3 18  1  0  0  0  0
  3 19  1  0  0  0  0
  4 11  1  0  0  0  0
  4 20  1  0  0  0  0
  4 21  1  0  0  0  0
  5  6  1  0  0  0  0
  5  7  1  0  0  0  0
  5 22  1  0  0  0  0
  5 23  1  0  0  0  0
  6  8  1  0  0  0  0
  6 24  1  0  0  0  0
  6 25  1  0  0  0  0
  7 13  1  0  0  0  0
  7 26  1  0  0  0  0
  7 27  1  0  0  0  0
  9 13  2  0  0  0  0
 10 13  2  0  0  0  0
 12 13  1  0  0  0  0
 12 28  1  0  0  0  0
M  END
$$$$
DrugBank_3087
 OpenBabel01151909533D

 24 24  0  0  1  0  0  0  0  0999 V2000
    0.3203    0.1204   -5.2045 C   0  0  0  0  0  0  0  0  0  0  0  0
   -0.9222    0.1433   -4.5712 C   0  0  0  0  0  0  0  0  0  0  0  0
    1.4577   -0.2653   -4.4951 C   0  0  0  0  0  0  0  0  0  0  0  0
   -1.0275   -0.2194   -3.2285 C   0  0  0  0  0  0  0  0  0  0  0  0
    1.3525   -0.6281   -3.1523 C   0  0  0  0  0  0  0  0  0  0  0  0
    0.1099   -0.6051   -2.5190 C   0  0  0  0  0  0  0  0  0  0  0  0
    0.5925   -0.3999    1.2559 C   0  0  0  0  0  0  0  0  0  0  0  0
   -0.0032   -0.9974   -1.0662 C   0  0  0  0  0  0  0  0  0  0  0  0
   -1.1276    1.0026    0.0503 C   0  0  0  0  0  0  0  0  0  0  0  0
    0.1682    0.1818   -0.0877 C   0  0  1  0  0  0  0  0  0  0  0  0
   -0.1736   -0.7310    2.1514 O   0  0  0  0  0  0  0  0  0  0  0  0
    1.9403   -0.5453    1.3489 O   0  0  0  0  0  0  0  0  0  0  0  0
   -0.8663    2.6693    1.3969 I   0  0  0  0  0  0  0  0  0  0  0  0
    0.4019    0.4016   -6.2504 H   0  0  0  0  0  0  0  0  0  0  0  0
   -1.8081    0.4426   -5.1238 H   0  0  0  0  0  0  0  0  0  0  0  0
    2.4251   -0.2844   -4.9881 H   0  0  0  0  0  0  0  0  0  0  0  0
   -1.9997   -0.1984   -2.7432 H   0  0  0  0  0  0  0  0  0  0  0  0
    2.2440   -0.9271   -2.6075 H   0  0  0  0  0  0  0  0  0  0  0  0
    0.7560   -1.7671   -0.8703 H   0  0  0  0  0  0  0  0  0  0  0  0
   -0.9659   -1.4937   -0.8833 H   0  0  0  0  0  0  0  0  0  0  0  0
   -1.4272    1.4176   -0.9175 H   0  0  0  0  0  0  0  0  0  0  0  0
   -1.9559    0.3796    0.4064 H   0  0  0  0  0  0  0  0  0  0  0  0
    0.9661    0.8498   -0.4369 H   0  0  0  0  0  0  0  0  0  0  0  0
    2.4509   -0.2440    0.5674 H   0  0  0  0  0  0  0  0  0  0  0  0
  1  2  2  0  0  0  0
  1  3  1  0  0  0  0
  1 14  1  0  0  0  0
  2  4  1  0  0  0  0
  2 15  1  0  0  0  0
  3  5  2  0  0  0  0
  3 16  1  0  0  0  0
  4  6  2  0  0  0  0
  4 17  1  0  0  0  0
  5  6  1  0  0  0  0
  5 18  1  0  0  0  0
  6  8  1  0  0  0  0
  7 10  1  0  0  0  0
  7 11  2  0  0  0  0
  7 12  1  0  0  0  0
  8 10  1  0  0  0  0
  8 19  1  0  0  0  0
  8 20  1  0  0  0  0
  9 10  1  0  0  0  0
  9 13  1  0  0  0  0
  9 21  1  0  0  0  0
  9 22  1  0  0  0  0
 10 23  1  6  0  0  0
 12 24  1  0  0  0  0
M  END
$$$$
DrugBank_3088
 OpenBabel01151909533D

 49 51  0  0  0  0  0  0  0  0999 V2000
    2.1299   -1.1686   -0.5568 C   0  0  0  0  0  0  0  0  0  0  0  0
    8.9948   -4.6975    3.8878 C   0  0  0  0  0  0  0  0  0  0  0  0
    1.2316   -0.3178    0.0873 C   0  0  0  0  0  0  0  0  0  0  0  0
    9.8711   -5.7712    4.0454 C   0  0  0  0  0  0  0  0  0  0  0  0
    8.9585   -6.1934    6.2423 C   0  0  0  0  0  0  0  0  0  0  0  0
    2.3983   -0.6658    2.1741 C   0  0  0  0  0  0  0  0  0  0  0  0
    3.1624   -1.7681    0.1646 C   0  0  0  0  0  0  0  0  0  0  0  0
    8.0822   -5.1196    6.0846 C   0  0  0  0  0  0  0  0  0  0  0  0
    3.2966   -1.5166    1.5300 C   0  0  0  0  0  0  0  0  0  0  0  0
    5.6881   -1.9519    3.9647 C   0  0  0  0  0  0  0  0  0  0  0  0
    8.1004   -4.3717    4.9074 C   0  0  0  0  0  0  0  0  0  0  0  0
    9.8529   -6.5192    5.2226 C   0  0  0  0  0  0  0  0  0  0  0  0
    1.3658   -0.0664    1.4527 C   0  0  0  0  0  0  0  0  0  0  0  0
    6.3345   -1.4342    5.1031 C   0  0  0  0  0  0  0  0  0  0  0  0
    6.2959   -3.1640    3.7462 C   0  0  0  0  0  0  0  0  0  0  0  0
    4.0859   -2.6522   -0.5341 C   0  0  0  0  0  0  0  0  0  0  0  0
    7.1357   -4.7976    7.1960 C   0  0  0  0  0  0  0  0  0  0  0  0
    6.0807   -0.1505    5.7807 C   0  0  0  0  0  0  0  0  0  0  0  0
    7.2804   -2.2507    5.5749 N   0  0  0  0  0  0  0  0  0  0  0  0
    4.3264   -2.1085    2.2725 N   0  0  0  0  0  0  0  0  0  0  0  0
    4.6551   -1.3576    3.2199 N   0  0  0  0  0  0  0  0  0  0  0  0
    7.2327   -3.2938    4.7289 N   0  0  0  0  0  0  0  0  0  0  0  0
    5.2693   -2.8295   -0.2331 O   0  0  0  0  0  0  0  0  0  0  0  0
   10.3734   -8.7755    6.3956 O   0  0  0  0  0  0  0  0  0  0  0  0
   11.2982   -8.3257    4.0855 O   0  0  0  0  0  0  0  0  0  0  0  0
    0.8955    1.5290    3.4455 O   0  0  0  0  0  0  0  0  0  0  0  0
   -0.2961    1.8933    1.2451 O   0  0  0  0  0  0  0  0  0  0  0  0
    6.1042   -4.0941    2.8203 O   0  0  0  0  0  0  0  0  0  0  0  0
    3.5002   -3.2869   -1.5850 O   0  0  0  0  0  0  0  0  0  0  0  0
   12.2929   -7.2236    6.1008 O   0  0  0  0  0  0  0  0  0  0  0  0
   -0.9715    0.0308    2.7750 O   0  0  0  0  0  0  0  0  0  0  0  0
   10.9507   -7.8623    5.4199 S   0  0  0  0  0  0  0  0  0  0  0  0
    0.2410    0.9984    2.2585 S   0  0  0  0  0  0  0  0  0  0  0  0
    2.0150   -1.3568   -1.6213 H   0  0  0  0  0  0  0  0  0  0  0  0
    9.0207   -4.1234    2.9644 H   0  0  0  0  0  0  0  0  0  0  0  0
    0.4308    0.1438   -0.4842 H   0  0  0  0  0  0  0  0  0  0  0  0
   10.5639   -6.0162    3.2448 H   0  0  0  0  0  0  0  0  0  0  0  0
    8.9439   -6.7763    7.1603 H   0  0  0  0  0  0  0  0  0  0  0  0
    2.5036   -0.4703    3.2388 H   0  0  0  0  0  0  0  0  0  0  0  0
    7.5952   -4.0850    7.8899 H   0  0  0  0  0  0  0  0  0  0  0  0
    6.2066   -4.3618    6.8097 H   0  0  0  0  0  0  0  0  0  0  0  0
    6.8587   -5.7008    7.7529 H   0  0  0  0  0  0  0  0  0  0  0  0
    5.3151   -0.2584    6.5676 H   0  0  0  0  0  0  0  0  0  0  0  0
    6.9909    0.2568    6.2552 H   0  0  0  0  0  0  0  0  0  0  0  0
    5.7307    0.6280    5.0798 H   0  0  0  0  0  0  0  0  0  0  0  0
    5.3930   -3.8473    2.1880 H   0  0  0  0  0  0  0  0  0  0  0  0
    4.1139   -3.8857   -2.0617 H   0  0  0  0  0  0  0  0  0  0  0  0
   12.1748   -6.8743    7.0154 H   0  0  0  0  0  0  0  0  0  0  0  0
   -0.7209   -0.6229    3.4695 H   0  0  0  0  0  0  0  0  0  0  0  0
  1  3  2  0  0  0  0
  1  7  1  0  0  0  0
  1 34  1  0  0  0  0
  2  4  2  0  0  0  0
  2 11  1  0  0  0  0
  2 35  1  0  0  0  0
  3 13  1  0  0  0  0
  3 36  1  0  0  0  0
  4 12  1  0  0  0  0
  4 37  1  0  0  0  0
  5  8  1  0  0  0  0
  5 12  2  0  0  0  0
  5 38  1  0  0  0  0
  6  9  1  0  0  0  0
  6 13  2  0  0  0  0
  6 39  1  0  0  0  0
  7  9  2  0  0  0  0
  7 16  1  0  0  0  0
  8 11  2  0  0  0  0
  8 17  1  0  0  0  0
  9 20  1  0  0  0  0
 10 14  1  0  0  0  0
 10 15  2  0  0  0  0
 10 21  1  0  0  0  0
 11 22  1  0  0  0  0
 12 32  1  0  0  0  0
 13 33  1  0  0  0  0
 14 18  1  0  0  0  0
 14 19  2  0  0  0  0
 15 22  1  0  0  0  0
 15 28  1  0  0  0  0
 16 23  2  0  0  0  0
 16 29  1  0  0  0  0
 17 40  1  0  0  0  0
 17 41  1  0  0  0  0
 17 42  1  0  0  0  0
 18 43  1  0  0  0  0
 18 44  1  0  0  0  0
 18 45  1  0  0  0  0
 19 22  1  0  0  0  0
 20 21  2  0  0  0  0
 24 32  2  0  0  0  0
 25 32  2  0  0  0  0
 26 33  2  0  0  0  0
 27 33  2  0  0  0  0
 28 46  1  0  0  0  0
 29 47  1  0  0  0  0
 30 32  1  0  0  0  0
 30 48  1  0  0  0  0
 31 33  1  0  0  0  0
 31 49  1  0  0  0  0
M  END
$$$$
DrugBank_3101
 OpenBabel01151909533D

 52 53  0  0  1  0  0  0  0  0999 V2000
    0.7788    3.8206   -0.3715 C   0  0  0  0  0  0  0  0  0  0  0  0
   -5.1130   -7.8707   -5.6484 C   0  0  0  0  0  0  0  0  0  0  0  0
   -3.9618   -7.7707   -4.8673 C   0  0  0  0  0  0  0  0  0  0  0  0
   -5.6790   -6.7243   -6.2064 C   0  0  0  0  0  0  0  0  0  0  0  0
   -3.3765   -6.5244   -4.6440 C   0  0  0  0  0  0  0  0  0  0  0  0
   -5.0937   -5.4780   -5.9831 C   0  0  0  0  0  0  0  0  0  0  0  0
   -3.9425   -5.3781   -5.2019 C   0  0  0  0  0  0  0  0  0  0  0  0
   -2.5771   -0.7420   -0.7087 C   0  0  0  0  0  0  0  0  0  0  0  0
   -3.4043   -2.2269   -3.4323 C   0  0  0  0  0  0  0  0  0  0  0  0
   -0.7206    1.0006    1.4629 C   0  0  0  0  0  0  0  0  0  0  0  0
   -0.6807    2.5016    1.2008 C   0  0  0  0  0  0  0  0  0  0  0  0
    0.5279    1.3181   -0.5409 C   0  0  0  0  0  0  0  0  0  0  0  0
   -0.5051    0.3882    0.0878 C   0  0  2  0  0  0  0  0  0  0  0  0
   -5.9571    1.2322   -2.8276 C   0  0  0  0  0  0  0  0  0  0  0  0
   -7.4240    0.6987   -0.8720 C   0  0  0  0  0  0  0  0  0  0  0  0
   -3.3135   -4.0370   -4.9619 C   0  0  0  0  0  0  0  0  0  0  0  0
   -4.9667    0.0082   -0.8689 C   0  0  0  0  0  0  0  0  0  0  0  0
   -3.7585   -0.5250   -1.6493 C   0  0  2  0  0  0  0  0  0  0  0  0
   -6.2397    0.2207   -1.7133 C   0  0  0  0  0  0  0  0  0  0  0  0
    1.2455    4.8214   -0.7268 N   0  0  0  0  0  0  0  0  0  0  0  0
    0.2387    2.6623    0.0398 N   0  0  0  0  0  0  0  0  0  0  0  0
   -1.7247    0.3531   -0.6825 N   0  0  0  0  0  0  0  0  0  0  0  0
   -4.0334   -1.7885   -2.2829 N   0  0  0  0  0  0  0  0  0  0  0  0
   -2.3970   -1.7895   -0.0912 O   0  0  0  0  0  0  0  0  0  0  0  0
   -2.5448   -1.6113   -4.0543 O   0  0  0  0  0  0  0  0  0  0  0  0
   -3.8818   -3.4588   -3.7814 O   0  0  0  0  0  0  0  0  0  0  0  0
   -5.5678   -8.8413   -5.8233 H   0  0  0  0  0  0  0  0  0  0  0  0
   -3.5203   -8.6633   -4.4336 H   0  0  0  0  0  0  0  0  0  0  0  0
   -6.5747   -6.8019   -6.8155 H   0  0  0  0  0  0  0  0  0  0  0  0
   -2.4797   -6.4561   -4.0338 H   0  0  0  0  0  0  0  0  0  0  0  0
   -5.5417   -4.5903   -6.4217 H   0  0  0  0  0  0  0  0  0  0  0  0
    0.1105    0.7244    2.1237 H   0  0  0  0  0  0  0  0  0  0  0  0
   -1.6548    0.6923    1.9426 H   0  0  0  0  0  0  0  0  0  0  0  0
   -1.6709    2.8823    0.9278 H   0  0  0  0  0  0  0  0  0  0  0  0
   -0.3167    3.0493    2.0751 H   0  0  0  0  0  0  0  0  0  0  0  0
    1.5423    1.0274   -0.2437 H   0  0  0  0  0  0  0  0  0  0  0  0
    0.4673    1.3419   -1.6337 H   0  0  0  0  0  0  0  0  0  0  0  0
   -0.1379   -0.6427    0.1450 H   0  0  0  0  0  0  0  0  0  0  0  0
   -5.6731    2.2035   -2.4088 H   0  0  0  0  0  0  0  0  0  0  0  0
   -6.8459    1.3853   -3.4489 H   0  0  0  0  0  0  0  0  0  0  0  0
   -5.1433    0.8921   -3.4771 H   0  0  0  0  0  0  0  0  0  0  0  0
   -7.1985    1.6464   -0.3714 H   0  0  0  0  0  0  0  0  0  0  0  0
   -8.3092    0.8508   -1.4992 H   0  0  0  0  0  0  0  0  0  0  0  0
   -7.6930   -0.0364   -0.1079 H   0  0  0  0  0  0  0  0  0  0  0  0
   -2.2304   -4.1306   -4.8279 H   0  0  0  0  0  0  0  0  0  0  0  0
   -3.4910   -3.3681   -5.8108 H   0  0  0  0  0  0  0  0  0  0  0  0
   -4.6923    0.9638   -0.4002 H   0  0  0  0  0  0  0  0  0  0  0  0
   -5.1956   -0.6755   -0.0407 H   0  0  0  0  0  0  0  0  0  0  0  0
   -3.4561    0.1696   -2.4394 H   0  0  0  0  0  0  0  0  0  0  0  0
   -6.5174   -0.7271   -2.1905 H   0  0  0  0  0  0  0  0  0  0  0  0
   -1.9527    1.1737   -1.2358 H   0  0  0  0  0  0  0  0  0  0  0  0
   -4.7325   -2.3944   -1.8590 H   0  0  0  0  0  0  0  0  0  0  0  0
  1 20  3  0  0  0  0
  1 21  1  0  0  0  0
  2  3  2  0  0  0  0
  2  4  1  0  0  0  0
  2 27  1  0  0  0  0
  3  5  1  0  0  0  0
  3 28  1  0  0  0  0
  4  6  2  0  0  0  0
  4 29  1  0  0  0  0
  5  7  2  0  0  0  0
  5 30  1  0  0  0  0
  6  7  1  0  0  0  0
  6 31  1  0  0  0  0
  7 16  1  0  0  0  0
  8 18  1  0  0  0  0
  8 22  1  0  0  0  0
  8 24  2  0  0  0  0
  9 23  1  0  0  0  0
  9 25  2  0  0  0  0
  9 26  1  0  0  0  0
 10 11  1  0  0  0  0
 10 13  1  0  0  0  0
 10 32  1  0  0  0  0
 10 33  1  0  0  0  0
 11 21  1  0  0  0  0
 11 34  1  0  0  0  0
 11 35  1  0  0  0  0
 12 13  1  0  0  0  0
 12 21  1  0  0  0  0
 12 36  1  0  0  0  0
 12 37  1  0  0  0  0
 13 22  1  0  0  0  0
 13 38  1  1  0  0  0
 14 19  1  0  0  0  0
 14 39  1  0  0  0  0
 14 40  1  0  0  0  0
 14 41  1  0  0  0  0
 15 19  1  0  0  0  0
 15 42  1  0  0  0  0
 15 43  1  0  0  0  0
 15 44  1  0  0  0  0
 16 26  1  0  0  0  0
 16 45  1  0  0  0  0
 16 46  1  0  0  0  0
 17 18  1  0  0  0  0
 17 19  1  0  0  0  0
 17 47  1  0  0  0  0
 17 48  1  0  0  0  0
 18 23  1  0  0  0  0
 18 49  1  6  0  0  0
 19 50  1  0  0  0  0
 22 51  1  0  0  0  0
 23 52  1  0  0  0  0
M  END
$$$$
DrugBank_3117
 OpenBabel01151909533D

 56 59  0  0  0  0  0  0  0  0999 V2000
    4.7430  -10.3261    0.0329 C   0  0  0  0  0  0  0  0  0  0  0  0
    4.5829  -11.1816   -1.0571 C   0  0  0  0  0  0  0  0  0  0  0  0
    4.2879   -9.0096   -0.0410 C   0  0  0  0  0  0  0  0  0  0  0  0
    3.9679  -10.7207   -2.2210 C   0  0  0  0  0  0  0  0  0  0  0  0
    1.6484   -1.3369   -0.3665 C   0  0  0  0  0  0  0  0  0  0  0  0
    3.4207   -2.9899   -0.7267 C   0  0  0  0  0  0  0  0  0  0  0  0
   -0.4966   -2.0341    0.4940 C   0  0  0  0  0  0  0  0  0  0  0  0
    2.1168   -2.6602   -0.3222 C   0  0  0  0  0  0  0  0  0  0  0  0
    1.2560   -3.6839    0.1403 C   0  0  0  0  0  0  0  0  0  0  0  0
    3.6729   -8.5486   -1.2050 C   0  0  0  0  0  0  0  0  0  0  0  0
    3.0228   -5.3167   -0.2210 C   0  0  0  0  0  0  0  0  0  0  0  0
   -0.0479   -3.3542    0.5448 C   0  0  0  0  0  0  0  0  0  0  0  0
    1.7243   -5.0072    0.1848 C   0  0  0  0  0  0  0  0  0  0  0  0
    3.5128   -9.4041   -2.2950 C   0  0  0  0  0  0  0  0  0  0  0  0
    0.3500   -1.0275    0.0392 C   0  0  0  0  0  0  0  0  0  0  0  0
    3.8693   -4.3100   -0.6758 C   0  0  0  0  0  0  0  0  0  0  0  0
   -4.3449   -3.5023    0.3409 C   0  0  0  0  0  0  0  0  0  0  0  0
   -4.2896   -5.4593    1.4382 C   0  0  0  0  0  0  0  0  0  0  0  0
   -2.3775   -4.3837    0.9650 C   0  0  0  0  0  0  0  0  0  0  0  0
   -5.0533   -4.5178    0.8610 N   0  0  0  0  0  0  0  0  0  0  0  0
   -3.0089   -3.3677    0.3551 N   0  0  0  0  0  0  0  0  0  0  0  0
   -2.9498   -5.4599    1.5281 N   0  0  0  0  0  0  0  0  0  0  0  0
    3.2229   -7.2182   -1.2551 N   0  0  0  0  0  0  0  0  0  0  0  0
    3.4720   -6.6451   -0.1704 N   0  0  0  0  0  0  0  0  0  0  0  0
   -5.0803   -2.4708   -0.2824 N   0  0  0  0  0  0  0  0  0  0  0  0
   -4.9629   -6.5620    2.0068 N   0  0  0  0  0  0  0  0  0  0  0  0
   -0.9762   -4.3136    1.0192 N   0  0  0  0  0  0  0  0  0  0  0  0
    2.6512   -9.9966   -4.6708 O   0  0  0  0  0  0  0  0  0  0  0  0
    1.5623   -8.1144   -3.3802 O   0  0  0  0  0  0  0  0  0  0  0  0
    0.5812    1.3315   -1.0190 O   0  0  0  0  0  0  0  0  0  0  0  0
   -1.6632    0.5733   -0.1348 O   0  0  0  0  0  0  0  0  0  0  0  0
    6.1498   -3.3989   -1.5167 O   0  0  0  0  0  0  0  0  0  0  0  0
    6.0748   -5.5578   -0.2023 O   0  0  0  0  0  0  0  0  0  0  0  0
    0.9471   -6.0464    0.6174 O   0  0  0  0  0  0  0  0  0  0  0  0
    3.8105   -7.8100   -4.4377 O   0  0  0  0  0  0  0  0  0  0  0  0
    0.1637    1.2639    1.4307 O   0  0  0  0  0  0  0  0  0  0  0  0
    5.3382   -5.4873   -2.5935 O   0  0  0  0  0  0  0  0  0  0  0  0
    2.7484   -8.8577   -3.7716 S   0  0  0  0  0  0  0  0  0  0  0  0
   -0.2137    0.6241   -0.0257 S   0  0  0  0  0  0  0  0  0  0  0  0
    5.5045   -4.6614   -1.1938 S   0  0  0  0  0  0  0  0  0  0  0  0
    5.2220  -10.6860    0.9389 H   0  0  0  0  0  0  0  0  0  0  0  0
    4.9374  -12.2066   -0.9988 H   0  0  0  0  0  0  0  0  0  0  0  0
    4.4181   -8.3519    0.8147 H   0  0  0  0  0  0  0  0  0  0  0  0
    3.8491  -11.3967   -3.0637 H   0  0  0  0  0  0  0  0  0  0  0  0
    2.3017   -0.5415   -0.7211 H   0  0  0  0  0  0  0  0  0  0  0  0
    4.0908   -2.2097   -1.0840 H   0  0  0  0  0  0  0  0  0  0  0  0
   -1.5084   -1.7879    0.8085 H   0  0  0  0  0  0  0  0  0  0  0  0
   -4.5940   -1.6745   -0.6401 H   0  0  0  0  0  0  0  0  0  0  0  0
   -6.0787   -2.5102   -0.2709 H   0  0  0  0  0  0  0  0  0  0  0  0
   -4.4279   -7.3068    2.4040 H   0  0  0  0  0  0  0  0  0  0  0  0
   -5.9565   -6.6235    1.9184 H   0  0  0  0  0  0  0  0  0  0  0  0
   -0.5374   -5.0976    1.4875 H   0  0  0  0  0  0  0  0  0  0  0  0
    1.4483   -6.8735    0.5728 H   0  0  0  0  0  0  0  0  0  0  0  0
    4.1067   -7.0777   -3.8473 H   0  0  0  0  0  0  0  0  0  0  0  0
    1.1287    1.3472    1.6161 H   0  0  0  0  0  0  0  0  0  0  0  0
    4.9568   -4.9732   -3.3436 H   0  0  0  0  0  0  0  0  0  0  0  0
  1  2  2  0  0  0  0
  1  3  1  0  0  0  0
  1 41  1  0  0  0  0
  2  4  1  0  0  0  0
  2 42  1  0  0  0  0
  3 10  2  0  0  0  0
  3 43  1  0  0  0  0
  4 14  2  0  0  0  0
  4 44  1  0  0  0  0
  5  8  2  0  0  0  0
  5 15  1  0  0  0  0
  5 45  1  0  0  0  0
  6  8  1  0  0  0  0
  6 16  2  0  0  0  0
  6 46  1  0  0  0  0
  7 12  1  0  0  0  0
  7 15  2  0  0  0  0
  7 47  1  0  0  0  0
  8  9  1  0  0  0  0
  9 12  2  0  0  0  0
  9 13  1  0  0  0  0
 10 14  1  0  0  0  0
 10 23  1  0  0  0  0
 11 13  2  0  0  0  0
 11 16  1  0  0  0  0
 11 24  1  0  0  0  0
 12 27  1  0  0  0  0
 13 34  1  0  0  0  0
 14 38  1  0  0  0  0
 15 39  1  0  0  0  0
 16 40  1  0  0  0  0
 17 20  2  0  0  0  0
 17 21  1  0  0  0  0
 17 25  1  0  0  0  0
 18 20  1  0  0  0  0
 18 22  2  0  0  0  0
 18 26  1  0  0  0  0
 19 21  2  0  0  0  0
 19 22  1  0  0  0  0
 19 27  1  0  0  0  0
 23 24  2  0  0  0  0
 25 48  1  0  0  0  0
 25 49  1  0  0  0  0
 26 50  1  0  0  0  0
 26 51  1  0  0  0  0
 27 52  1  0  0  0  0
 28 38  2  0  0  0  0
 29 38  2  0  0  0  0
 30 39  2  0  0  0  0
 31 39  2  0  0  0  0
 32 40  2  0  0  0  0
 33 40  2  0  0  0  0
 34 53  1  0  0  0  0
 35 38  1  0  0  0  0
 35 54  1  0  0  0  0
 36 39  1  0  0  0  0
 36 55  1  0  0  0  0
 37 40  1  0  0  0  0
 37 56  1  0  0  0  0
M  END
$$$$
DrugBank_390
 OpenBabel01151909533D

 33 33  0  0  0  0  0  0  0  0999 V2000
    2.0942   -1.4273    0.6220 C   0  0  0  0  0  0  0  0  0  0  0  0
    3.4062    5.6755    5.4616 C   0  0  0  0  0  0  0  0  0  0  0  0
    2.3400    4.5919    3.9717 C   0  0  0  0  0  0  0  0  0  0  0  0
    2.5406    3.7020    5.0005 C   0  0  0  0  0  0  0  0  0  0  0  0
    0.0780   -0.1125    0.6415 C   0  0  0  0  0  0  0  0  0  0  0  0
    2.1660    2.2914    5.1862 C   0  0  0  0  0  0  0  0  0  0  0  0
   -2.0070   -1.2211    0.9552 C   0  0  0  0  0  0  0  0  0  0  0  0
    1.6382    4.3637    2.6614 C   0  0  0  0  0  0  0  0  0  0  0  0
    0.3797    2.3503    0.3227 C   0  0  0  0  0  0  0  0  0  0  0  0
    1.4825    3.3779    0.1080 C   0  0  0  0  0  0  0  0  0  0  0  0
    3.2498   -1.4713    0.5264 N   0  0  0  0  0  0  0  0  0  0  0  0
    2.8815    5.8185    4.2648 N   0  0  0  0  0  0  0  0  0  0  0  0
   -1.2129   -0.0214    0.7432 N   0  0  0  0  0  0  0  0  0  0  0  0
    3.2252    4.4104    5.9474 N   0  0  0  0  0  0  0  0  0  0  0  0
    0.7571   -1.3874    0.7338 N   0  0  0  0  0  0  0  0  0  0  0  0
    0.8806    0.9997    0.4394 N   0  0  0  0  0  0  0  0  0  0  0  0
    2.6553    3.4284    1.4971 S   0  0  0  0  0  0  0  0  0  0  0  0
    3.9255    6.4379    6.0245 H   0  0  0  0  0  0  0  0  0  0  0  0
    2.9527    1.6137    4.8109 H   0  0  0  0  0  0  0  0  0  0  0  0
    1.9923    2.0407    6.2485 H   0  0  0  0  0  0  0  0  0  0  0  0
    1.2288    2.0344    4.6596 H   0  0  0  0  0  0  0  0  0  0  0  0
   -2.1236   -1.4101    2.0255 H   0  0  0  0  0  0  0  0  0  0  0  0
   -1.5172   -2.0824    0.4935 H   0  0  0  0  0  0  0  0  0  0  0  0
   -2.9966   -1.0962    0.5084 H   0  0  0  0  0  0  0  0  0  0  0  0
    0.6985    3.8241    2.8233 H   0  0  0  0  0  0  0  0  0  0  0  0
    1.3724    5.3234    2.2045 H   0  0  0  0  0  0  0  0  0  0  0  0
   -0.2970    2.3584   -0.5383 H   0  0  0  0  0  0  0  0  0  0  0  0
   -0.2147    2.5684    1.2161 H   0  0  0  0  0  0  0  0  0  0  0  0
    2.0408    3.1653   -0.8095 H   0  0  0  0  0  0  0  0  0  0  0  0
    1.0400    4.3743    0.0120 H   0  0  0  0  0  0  0  0  0  0  0  0
    3.5397    4.0655    6.8447 H   0  0  0  0  0  0  0  0  0  0  0  0
    0.2047   -2.2394    0.8844 H   0  0  0  0  0  0  0  0  0  0  0  0
    1.8878    0.8996    0.3631 H   0  0  0  0  0  0  0  0  0  0  0  0
  1 11  3  0  0  0  0
  1 15  1  0  0  0  0
  2 12  2  0  0  0  0
  2 14  1  0  0  0  0
  2 18  1  0  0  0  0
  3  4  2  0  0  0  0
  3  8  1  0  0  0  0
  3 12  1  0  0  0  0
  4  6  1  0  0  0  0
  4 14  1  0  0  0  0
  5 13  2  0  0  0  0
  5 15  1  0  0  0  0
  5 16  1  0  0  0  0
  6 19  1  0  0  0  0
  6 20  1  0  0  0  0
  6 21  1  0  0  0  0
  7 13  1  0  0  0  0
  7 22  1  0  0  0  0
  7 23  1  0  0  0  0
  7 24  1  0  0  0  0
  8 17  1  0  0  0  0
  8 25  1  0  0  0  0
  8 26  1  0  0  0  0
  9 10  1  0  0  0  0
  9 16  1  0  0  0  0
  9 27  1  0  0  0  0
  9 28  1  0  0  0  0
 10 17  1  0  0  0  0
 10 29  1  0  0  0  0
 10 30  1  0  0  0  0
 14 31  1  0  0  0  0
 15 32  1  0  0  0  0
 16 33  1  0  0  0  0
M  END
$$$$
DrugBank_416
 OpenBabel01151909533D

 10  9  0  0  0  0  0  0  0  0999 V2000
   -0.8582    0.5781    0.7027 C   0  0  0  0  0  0  0  0  0  0  0  0
   -1.8785    1.1501    0.3480 O   0  0  0  0  0  0  0  0  0  0  0  0
   -0.5433   -0.2598   -1.8954 O   0  0  0  0  0  0  0  0  0  0  0  0
   -0.3826    0.5922    1.9720 O   0  0  0  0  0  0  0  0  0  0  0  0
    1.5832    0.2449   -0.4671 O   0  0  0  0  0  0  0  0  0  0  0  0
    0.2479   -1.8258    0.0383 O   0  0  0  0  0  0  0  0  0  0  0  0
    0.0637   -0.3161   -0.5217 P   0  0  0  0  0  0  0  0  0  0  0  0
    0.4470    0.0757    2.0581 H   0  0  0  0  0  0  0  0  0  0  0  0
    2.2689   -0.1935   -1.0147 H   0  0  0  0  0  0  0  0  0  0  0  0
    0.8136   -2.4504   -0.4638 H   0  0  0  0  0  0  0  0  0  0  0  0
  1  2  2  0  0  0  0
  1  4  1  0  0  0  0
  1  7  1  0  0  0  0
  3  7  2  0  0  0  0
  4  8  1  0  0  0  0
  5  7  1  0  0  0  0
  5  9  1  0  0  0  0
  6  7  1  0  0  0  0
  6 10  1  0  0  0  0
M  END
$$$$
DrugBank_423
 OpenBabel01151909533D

  9  8  0  0  0  0  0  0  0  0999 V2000
    0.0176   -1.9016    0.8581 C   0  0  0  0  0  0  0  0  0  0  0  0
   -0.5353   -1.6085    2.0006 N   0  0  0  0  0  0  0  0  0  0  0  0
    0.2519   -0.9747   -0.1234 N   0  0  0  0  0  0  0  0  0  0  0  0
    0.4185   -3.1697    0.5287 N   0  0  0  0  0  0  0  0  0  0  0  0
   -0.6025   -2.4650    2.5615 H   0  0  0  0  0  0  0  0  0  0  0  0
   -0.0007   -0.0001   -0.0003 H   0  0  0  0  0  0  0  0  0  0  0  0
    0.6841   -1.2345   -1.0035 H   0  0  0  0  0  0  0  0  0  0  0  0
    0.8457   -3.3684   -0.3694 H   0  0  0  0  0  0  0  0  0  0  0  0
    0.2994   -3.9463    1.1701 H   0  0  0  0  0  0  0  0  0  0  0  0
  1  2  2  0  0  0  0
  1  3  1  0  0  0  0
  1  4  1  0  0  0  0
  2  5  1  0  0  0  0
  3  6  1  0  0  0  0
  3  7  1  0  0  0  0
  4  8  1  0  0  0  0
  4  9  1  0  0  0  0
M  END
$$$$
DrugBank_3175
 OpenBabel01151909533D

 56 56  0  0  1  0  0  0  0  0999 V2000
    2.6782   -1.2096  -10.1772 C   0  0  0  0  0  0  0  0  0  0  0  0
    1.5355   -0.9613   -9.4168 C   0  0  0  0  0  0  0  0  0  0  0  0
    3.7538   -1.8977   -9.6155 C   0  0  0  0  0  0  0  0  0  0  0  0
    1.4685   -1.4008   -8.0947 C   0  0  0  0  0  0  0  0  0  0  0  0
    3.6867   -2.3372   -8.2934 C   0  0  0  0  0  0  0  0  0  0  0  0
    2.5441   -2.0888   -7.5330 C   0  0  0  0  0  0  0  0  0  0  0  0
    1.1276    0.8669    1.5532 C   0  0  0  0  0  0  0  0  0  0  0  0
    2.3061   -0.2080   -1.2375 C   0  0  0  0  0  0  0  0  0  0  0  0
    2.9818   -1.8238   -3.9151 C   0  0  0  0  0  0  0  0  0  0  0  0
    0.0224    1.8756    1.7328 C   0  0  0  0  0  0  0  0  0  0  0  0
    0.3069   -1.4923    1.6278 C   0  0  0  0  0  0  0  0  0  0  0  0
    2.4727   -2.5617   -6.1108 C   0  0  0  0  0  0  0  0  0  0  0  0
    6.1588   -0.4287   -1.8609 C   0  0  0  0  0  0  0  0  0  0  0  0
    4.8230    0.1481   -1.3697 C   0  0  0  0  0  0  0  0  0  0  0  0
    7.3580    0.4010   -1.4087 C   0  0  0  0  0  0  0  0  0  0  0  0
    0.7938   -0.3678    0.7318 C   0  0  2  0  0  0  0  0  0  0  0  0
    3.6335   -0.7363   -1.7719 C   0  0  2  0  0  0  0  0  0  0  0  0
    9.7862    0.5542   -1.4446 C   0  0  0  0  0  0  0  0  0  0  0  0
   10.0494    1.6716   -2.3457 N   0  0  0  0  0  0  0  0  0  0  0  0
   10.9471   -0.3315   -1.4560 N   0  0  0  0  0  0  0  0  0  0  0  0
    1.9864   -0.7370    0.0047 N   0  0  0  0  0  0  0  0  0  0  0  0
    3.4939   -0.7562   -3.2291 N   0  0  0  0  0  0  0  0  0  0  0  0
    8.5923   -0.2005   -1.8528 N   0  0  0  0  0  0  0  0  0  0  0  0
    2.2251    1.0287    2.0872 O   0  0  0  0  0  0  0  0  0  0  0  0
    1.6271    0.6160   -1.8472 O   0  0  0  0  0  0  0  0  0  0  0  0
    2.5813   -2.8767   -3.4298 O   0  0  0  0  0  0  0  0  0  0  0  0
    2.9827   -1.5363   -5.2510 O   0  0  0  0  0  0  0  0  0  0  0  0
    2.7297   -0.8685  -11.2070 H   0  0  0  0  0  0  0  0  0  0  0  0
    0.6975   -0.4265   -9.8543 H   0  0  0  0  0  0  0  0  0  0  0  0
    4.6431   -2.0922  -10.2076 H   0  0  0  0  0  0  0  0  0  0  0  0
    0.5742   -1.2026   -7.5096 H   0  0  0  0  0  0  0  0  0  0  0  0
    4.5296   -2.8724   -7.8642 H   0  0  0  0  0  0  0  0  0  0  0  0
   -0.5512    1.6346    2.6313 H   0  0  0  0  0  0  0  0  0  0  0  0
    0.4493    2.8782    1.8142 H   0  0  0  0  0  0  0  0  0  0  0  0
   -0.6487    1.8446    0.8698 H   0  0  0  0  0  0  0  0  0  0  0  0
    1.0632   -1.7489    2.3772 H   0  0  0  0  0  0  0  0  0  0  0  0
   -0.6081   -1.2108    2.1617 H   0  0  0  0  0  0  0  0  0  0  0  0
    0.0849   -2.3910    1.0428 H   0  0  0  0  0  0  0  0  0  0  0  0
    1.4398   -2.7870   -5.8242 H   0  0  0  0  0  0  0  0  0  0  0  0
    3.0659   -3.4724   -5.9748 H   0  0  0  0  0  0  0  0  0  0  0  0
    6.2731   -1.4462   -1.4674 H   0  0  0  0  0  0  0  0  0  0  0  0
    6.1569   -0.5056   -2.9547 H   0  0  0  0  0  0  0  0  0  0  0  0
    4.6925    1.1651   -1.7607 H   0  0  0  0  0  0  0  0  0  0  0  0
    4.8597    0.2318   -0.2756 H   0  0  0  0  0  0  0  0  0  0  0  0
    7.2883    1.4249   -1.7905 H   0  0  0  0  0  0  0  0  0  0  0  0
    7.3695    0.4582   -0.3153 H   0  0  0  0  0  0  0  0  0  0  0  0
    0.0357   -0.1140   -0.0158 H   0  0  0  0  0  0  0  0  0  0  0  0
    3.7983   -1.7601   -1.4172 H   0  0  0  0  0  0  0  0  0  0  0  0
    9.6657    0.9293   -0.4218 H   0  0  0  0  0  0  0  0  0  0  0  0
   10.8893    2.1583   -2.0354 H   0  0  0  0  0  0  0  0  0  0  0  0
    9.2914    2.3490   -2.2819 H   0  0  0  0  0  0  0  0  0  0  0  0
   11.7644    0.1808   -1.1273 H   0  0  0  0  0  0  0  0  0  0  0  0
   10.7946   -1.0838   -0.7860 H   0  0  0  0  0  0  0  0  0  0  0  0
    2.6188   -1.4138    0.4212 H   0  0  0  0  0  0  0  0  0  0  0  0
    3.7881    0.0527   -3.7504 H   0  0  0  0  0  0  0  0  0  0  0  0
    8.6685   -1.1423   -1.4551 H   0  0  0  0  0  0  0  0  0  0  0  0
  1  2  2  0  0  0  0
  1  3  1  0  0  0  0
  1 28  1  0  0  0  0
  2  4  1  0  0  0  0
  2 29  1  0  0  0  0
  3  5  2  0  0  0  0
  3 30  1  0  0  0  0
  4  6  2  0  0  0  0
  4 31  1  0  0  0  0
  5  6  1  0  0  0  0
  5 32  1  0  0  0  0
  6 12  1  0  0  0  0
  7 10  1  0  0  0  0
  7 16  1  0  0  0  0
  7 24  2  0  0  0  0
  8 17  1  0  0  0  0
  8 21  1  0  0  0  0
  8 25  2  0  0  0  0
  9 22  1  0  0  0  0
  9 26  2  0  0  0  0
  9 27  1  0  0  0  0
 10 33  1  0  0  0  0
 10 34  1  0  0  0  0
 10 35  1  0  0  0  0
 11 16  1  0  0  0  0
 11 36  1  0  0  0  0
 11 37  1  0  0  0  0
 11 38  1  0  0  0  0
 12 27  1  0  0  0  0
 12 39  1  0  0  0  0
 12 40  1  0  0  0  0
 13 14  1  0  0  0  0
 13 15  1  0  0  0  0
 13 41  1  0  0  0  0
 13 42  1  0  0  0  0
 14 17  1  0  0  0  0
 14 43  1  0  0  0  0
 14 44  1  0  0  0  0
 15 23  1  0  0  0  0
 15 45  1  0  0  0  0
 15 46  1  0  0  0  0
 16 21  1  0  0  0  0
 16 47  1  6  0  0  0
 17 22  1  0  0  0  0
 17 48  1  1  0  0  0
 18 19  1  0  0  0  0
 18 20  1  0  0  0  0
 18 23  1  0  0  0  0
 18 49  1  0  0  0  0
 19 50  1  0  0  0  0
 19 51  1  0  0  0  0
 20 52  1  0  0  0  0
 20 53  1  0  0  0  0
 21 54  1  0  0  0  0
 22 55  1  0  0  0  0
 23 56  1  0  0  0  0
M  END
$$$$
DrugBank_442
 OpenBabel01151909533D

 23 24  0  0  0  0  0  0  0  0999 V2000
    1.6280   -2.3097    0.6295 C   0  0  0  0  0  0  0  0  0  0  0  0
    0.5602   -1.6831    1.2719 C   0  0  0  0  0  0  0  0  0  0  0  0
    2.8995   -1.7375    0.6703 C   0  0  0  0  0  0  0  0  0  0  0  0
    0.7638   -0.4841    1.9551 C   0  0  0  0  0  0  0  0  0  0  0  0
    3.1031   -0.5386    1.3535 C   0  0  0  0  0  0  0  0  0  0  0  0
    2.0353    0.0881    1.9959 C   0  0  0  0  0  0  0  0  0  0  0  0
   -0.3809    0.1264    2.6062 C   0  0  0  0  0  0  0  0  0  0  0  0
   -1.2188    1.0296    2.0042 C   0  0  0  0  0  0  0  0  0  0  0  0
   -2.4149    1.1462    3.9161 C   0  0  0  0  0  0  0  0  0  0  0  0
   -0.5817   -0.2576    3.8799 N   0  0  0  0  0  0  0  0  0  0  0  0
   -2.2649    1.5657    2.6509 N   0  0  0  0  0  0  0  0  0  0  0  0
   -1.6254    0.2629    4.5583 N   0  0  0  0  0  0  0  0  0  0  0  0
   -0.9832    1.4157    0.6652 N   0  0  0  0  0  0  0  0  0  0  0  0
   -3.4980    1.6808    4.6447 N   0  0  0  0  0  0  0  0  0  0  0  0
    4.7065    0.1114    1.3612 Cl  0  0  0  0  0  0  0  0  0  0  0  0
    2.2828    1.5832    2.8494 Cl  0  0  0  0  0  0  0  0  0  0  0  0
    1.4695   -3.2433    0.0975 H   0  0  0  0  0  0  0  0  0  0  0  0
   -0.4239   -2.1440    1.2292 H   0  0  0  0  0  0  0  0  0  0  0  0
    3.7197   -2.2402    0.1639 H   0  0  0  0  0  0  0  0  0  0  0  0
   -0.1797    1.0589    0.1918 H   0  0  0  0  0  0  0  0  0  0  0  0
   -1.5700    2.1089    0.2502 H   0  0  0  0  0  0  0  0  0  0  0  0
   -4.0767    2.3759    4.2185 H   0  0  0  0  0  0  0  0  0  0  0  0
   -3.6124    1.4265    5.6049 H   0  0  0  0  0  0  0  0  0  0  0  0
  1  2  2  0  0  0  0
  1  3  1  0  0  0  0
  1 17  1  0  0  0  0
  2  4  1  0  0  0  0
  2 18  1  0  0  0  0
  3  5  2  0  0  0  0
  3 19  1  0  0  0  0
  4  6  2  0  0  0  0
  4  7  1  0  0  0  0
  5  6  1  0  0  0  0
  5 15  1  0  0  0  0
  6 16  1  0  0  0  0
  7  8  2  0  0  0  0
  7 10  1  0  0  0  0
  8 11  1  0  0  0  0
  8 13  1  0  0  0  0
  9 11  2  0  0  0  0
  9 12  1  0  0  0  0
  9 14  1  0  0  0  0
 10 12  2  0  0  0  0
 13 20  1  0  0  0  0
 13 21  1  0  0  0  0
 14 22  1  0  0  0  0
 14 23  1  0  0  0  0
M  END
$$$$
DrugBank_443
 OpenBabel01151909533D

 11 10  0  0  0  0  0  0  0  0999 V2000
   -0.5227    0.2780   -0.0043 C   0  0  0  0  0  0  0  0  0  0  0  0
    0.7954    1.0083    0.0099 C   0  0  0  0  0  0  0  0  0  0  0  0
   -0.3915   -1.2231   -0.0067 C   0  0  0  0  0  0  0  0  0  0  0  0
   -1.2479    0.6557    1.0791 F   0  0  0  0  0  0  0  0  0  0  0  0
   -1.2275    0.6611   -1.0991 F   0  0  0  0  0  0  0  0  0  0  0  0
    1.5402    0.6993   -1.0727 F   0  0  0  0  0  0  0  0  0  0  0  0
    1.5103    0.6806    1.1081 F   0  0  0  0  0  0  0  0  0  0  0  0
    0.6158    2.3461    0.0206 F   0  0  0  0  0  0  0  0  0  0  0  0
    0.2692   -1.6458    1.0930 F   0  0  0  0  0  0  0  0  0  0  0  0
   -1.6011   -1.8222   -0.0151 F   0  0  0  0  0  0  0  0  0  0  0  0
    0.2919   -1.6549   -1.0878 F   0  0  0  0  0  0  0  0  0  0  0  0
  1  2  1  0  0  0  0
  1  3  1  0  0  0  0
  1  4  1  0  0  0  0
  1  5  1  0  0  0  0
  2  6  1  0  0  0  0
  2  7  1  0  0  0  0
  2  8  1  0  0  0  0
  3  9  1  0  0  0  0
  3 10  1  0  0  0  0
  3 11  1  0  0  0  0
M  END
$$$$
DrugBank_3183
 OpenBabel01151909533D

 68 69  0  0  1  0  0  0  0  0999 V2000
    4.8665    7.6334   -3.0550 C   0  0  0  0  0  0  0  0  0  0  0  0
    5.5197    6.1687   -1.2480 C   0  0  0  0  0  0  0  0  0  0  0  0
    4.0094    6.6477   -3.5442 C   0  0  0  0  0  0  0  0  0  0  0  0
    4.6625    5.1830   -1.7372 C   0  0  0  0  0  0  0  0  0  0  0  0
    5.6217    7.3939   -1.9069 C   0  0  0  0  0  0  0  0  0  0  0  0
    3.9074    5.4225   -2.8853 C   0  0  0  0  0  0  0  0  0  0  0  0
   -0.1744    7.2095   -0.1834 C   0  0  0  0  0  0  0  0  0  0  0  0
    6.5154    8.4212   -1.3957 C   0  0  0  0  0  0  0  0  0  0  0  0
   10.8336    7.1423    1.2439 C   0  0  0  0  0  0  0  0  0  0  0  0
    7.0795    9.6071    2.0317 C   0  0  0  0  0  0  0  0  0  0  0  0
   -1.0455    6.1169   -0.8073 C   0  0  1  0  0  0  0  0  0  0  0  0
   -1.8426    6.6231   -2.0239 C   0  0  2  0  0  0  0  0  0  0  0  0
   -1.5578    8.9087   -1.3980 C   0  0  1  0  0  0  0  0  0  0  0  0
    9.3907    7.5728    1.3294 C   0  0  0  0  0  0  0  0  0  0  0  0
   -0.1903    4.8941   -1.1507 C   0  0  0  0  0  0  0  0  0  0  0  0
    9.1054    8.9234    0.6666 C   0  0  0  0  0  0  0  0  0  0  0  0
    0.9391    5.2543   -2.1169 C   0  0  0  0  0  0  0  0  0  0  0  0
    1.8193    4.0339   -2.4217 C   0  0  0  0  0  0  0  0  0  0  0  0
    2.9703    4.3467   -3.4194 C   0  0  2  0  0  0  0  0  0  0  0  0
    7.6335    9.3682    0.6384 C   0  0  1  0  0  0  0  0  0  0  0  0
    3.6961    3.0357   -3.8578 C   0  0  0  0  0  0  0  0  0  0  0  0
    4.7510    3.2418   -4.9419 C   0  0  0  0  0  0  0  0  0  0  0  0
   -0.6251    8.5013   -0.3649 N   0  0  0  0  0  0  0  0  0  0  0  0
   -2.5348    7.8659   -1.6790 N   0  0  0  0  0  0  0  0  0  0  0  0
   -2.8299    5.6332   -2.4513 N   0  0  0  0  0  0  0  0  0  0  0  0
   -2.2266   10.1224   -0.9549 N   0  0  0  0  0  0  0  0  0  0  0  0
    6.7856    8.4022   -0.0224 N   0  0  0  0  0  0  0  0  0  0  0  0
    0.8007    6.9488    0.5220 O   0  0  0  0  0  0  0  0  0  0  0  0
    6.9905    9.2811   -2.1584 O   0  0  0  0  0  0  0  0  0  0  0  0
   11.7258    7.8336    0.7696 O   0  0  0  0  0  0  0  0  0  0  0  0
    6.1324    9.0134    2.5310 O   0  0  0  0  0  0  0  0  0  0  0  0
   11.0436    5.9070    1.7625 O   0  0  0  0  0  0  0  0  0  0  0  0
    7.7625   10.5809    2.6900 O   0  0  0  0  0  0  0  0  0  0  0  0
    4.3594    2.5209   -2.6954 O   0  0  0  0  0  0  0  0  0  0  0  0
    2.7315    2.0836   -4.3016 O   0  0  0  0  0  0  0  0  0  0  0  0
    5.7143    4.0902   -4.5126 F   0  0  0  0  0  0  0  0  0  0  0  0
    5.3628    2.0894   -5.2869 F   0  0  0  0  0  0  0  0  0  0  0  0
    4.2097    3.7745   -6.0592 F   0  0  0  0  0  0  0  0  0  0  0  0
    4.9386    8.5847   -3.5757 H   0  0  0  0  0  0  0  0  0  0  0  0
    6.1033    5.9710   -0.3527 H   0  0  0  0  0  0  0  0  0  0  0  0
    3.4245    6.8430   -4.4391 H   0  0  0  0  0  0  0  0  0  0  0  0
    4.5889    4.2314   -1.2172 H   0  0  0  0  0  0  0  0  0  0  0  0
   -1.7480    5.8196   -0.0176 H   0  0  0  0  0  0  0  0  0  0  0  0
   -1.1613    6.8047   -2.8685 H   0  0  0  0  0  0  0  0  0  0  0  0
   -0.9660    9.1356   -2.2942 H   0  0  0  0  0  0  0  0  0  0  0  0
    9.0912    7.5758    2.3831 H   0  0  0  0  0  0  0  0  0  0  0  0
    8.7876    6.7905    0.8521 H   0  0  0  0  0  0  0  0  0  0  0  0
   -0.8288    4.1222   -1.5959 H   0  0  0  0  0  0  0  0  0  0  0  0
    0.2276    4.4770   -0.2271 H   0  0  0  0  0  0  0  0  0  0  0  0
    9.7036    9.7075    1.1480 H   0  0  0  0  0  0  0  0  0  0  0  0
    9.4662    8.8618   -0.3682 H   0  0  0  0  0  0  0  0  0  0  0  0
    0.5054    5.6506   -3.0421 H   0  0  0  0  0  0  0  0  0  0  0  0
    1.5547    6.0499   -1.6798 H   0  0  0  0  0  0  0  0  0  0  0  0
    2.2482    3.6813   -1.4755 H   0  0  0  0  0  0  0  0  0  0  0  0
    1.1892    3.2184   -2.7966 H   0  0  0  0  0  0  0  0  0  0  0  0
    2.4811    4.7466   -4.3204 H   0  0  0  0  0  0  0  0  0  0  0  0
    7.5505   10.3083    0.0796 H   0  0  0  0  0  0  0  0  0  0  0  0
   -0.2800    9.2155    0.2684 H   0  0  0  0  0  0  0  0  0  0  0  0
   -3.1161    8.1569   -2.4638 H   0  0  0  0  0  0  0  0  0  0  0  0
   -2.5792    4.6710   -2.3977 H   0  0  0  0  0  0  0  0  0  0  0  0
   -3.6216    5.9547   -2.9627 H   0  0  0  0  0  0  0  0  0  0  0  0
   -3.0896   10.3753   -1.3914 H   0  0  0  0  0  0  0  0  0  0  0  0
   -1.7151   10.7651   -0.3851 H   0  0  0  0  0  0  0  0  0  0  0  0
    6.3219    7.7169    0.5650 H   0  0  0  0  0  0  0  0  0  0  0  0
   10.2431    5.4591    2.1104 H   0  0  0  0  0  0  0  0  0  0  0  0
    8.5025   10.9853    2.1891 H   0  0  0  0  0  0  0  0  0  0  0  0
    4.8184    1.7023   -2.9488 H   0  0  0  0  0  0  0  0  0  0  0  0
    3.2045    1.2778   -4.5689 H   0  0  0  0  0  0  0  0  0  0  0  0
  1  3  2  0  0  0  0
  1  5  1  0  0  0  0
  1 39  1  0  0  0  0
  2  4  1  0  0  0  0
  2  5  2  0  0  0  0
  2 40  1  0  0  0  0
  3  6  1  0  0  0  0
  3 41  1  0  0  0  0
  4  6  2  0  0  0  0
  4 42  1  0  0  0  0
  5  8  1  0  0  0  0
  6 19  1  0  0  0  0
  7 11  1  0  0  0  0
  7 23  1  0  0  0  0
  7 28  2  0  0  0  0
  8 27  1  0  0  0  0
  8 29  2  0  0  0  0
  9 14  1  0  0  0  0
  9 30  2  0  0  0  0
  9 32  1  0  0  0  0
 10 20  1  0  0  0  0
 10 31  2  0  0  0  0
 10 33  1  0  0  0  0
 11 12  1  6  0  0  0
 11 15  1  0  0  0  0
 11 43  1  0  0  0  0
 12 24  1  0  0  0  0
 12 25  1  0  0  0  0
 12 44  1  6  0  0  0
 13 23  1  0  0  0  0
 13 24  1  0  0  0  0
 13 26  1  0  0  0  0
 13 45  1  6  0  0  0
 14 16  1  0  0  0  0
 14 46  1  0  0  0  0
 14 47  1  0  0  0  0
 15 17  1  0  0  0  0
 15 48  1  0  0  0  0
 15 49  1  0  0  0  0
 16 20  1  0  0  0  0
 16 50  1  0  0  0  0
 16 51  1  0  0  0  0
 17 18  1  0  0  0  0
 17 52  1  0  0  0  0
 17 53  1  0  0  0  0
 18 19  1  0  0  0  0
 18 54  1  0  0  0  0
 18 55  1  0  0  0  0
 19 21  1  0  0  0  0
 19 56  1  6  0  0  0
 20 27  1  0  0  0  0
 20 57  1  6  0  0  0
 21 22  1  0  0  0  0
 21 34  1  0  0  0  0
 21 35  1  0  0  0  0
 22 36  1  0  0  0  0
 22 37  1  0  0  0  0
 22 38  1  0  0  0  0
 23 58  1  0  0  0  0
 24 59  1  0  0  0  0
 25 60  1  0  0  0  0
 25 61  1  0  0  0  0
 26 62  1  0  0  0  0
 26 63  1  0  0  0  0
 27 64  1  0  0  0  0
 32 65  1  0  0  0  0
 33 66  1  0  0  0  0
 34 67  1  0  0  0  0
 35 68  1  0  0  0  0
M  END
$$$$
DrugBank_449
 OpenBabel01151909533D

 40 42  0  0  0  0  0  0  0  0999 V2000
  -11.0288   -2.8869    6.5998 C   0  0  0  0  0  0  0  0  0  0  0  0
  -10.4415   -3.9971    5.9930 C   0  0  0  0  0  0  0  0  0  0  0  0
  -11.0580   -1.6618    5.9335 C   0  0  0  0  0  0  0  0  0  0  0  0
   -9.8833   -3.8822    4.7199 C   0  0  0  0  0  0  0  0  0  0  0  0
  -10.4998   -1.5469    4.6603 C   0  0  0  0  0  0  0  0  0  0  0  0
   -3.3043    0.5959    0.5635 C   0  0  0  0  0  0  0  0  0  0  0  0
   -1.5251   -1.5128    0.1298 C   0  0  0  0  0  0  0  0  0  0  0  0
   -9.9124   -2.6571    4.0535 C   0  0  0  0  0  0  0  0  0  0  0  0
   -3.7951   -0.7151    0.5455 C   0  0  0  0  0  0  0  0  0  0  0  0
   -2.8860   -1.7492    0.3268 C   0  0  0  0  0  0  0  0  0  0  0  0
   -1.0561   -0.2023    0.1514 C   0  0  0  0  0  0  0  0  0  0  0  0
   -1.9439    0.8512    0.3679 C   0  0  0  0  0  0  0  0  0  0  0  0
   -5.6891   -2.2376    0.7363 C   0  0  0  0  0  0  0  0  0  0  0  0
   -9.3106   -2.5324    2.6810 C   0  0  0  0  0  0  0  0  0  0  0  0
   -7.1816   -2.3179    0.9671 C   0  0  0  0  0  0  0  0  0  0  0  0
   -5.0703   -3.3636    0.5576 N   0  0  0  0  0  0  0  0  0  0  0  0
   -5.1554   -0.9688    0.7419 N   0  0  0  0  0  0  0  0  0  0  0  0
    1.2314   -0.0099    1.5061 N   0  0  0  0  0  0  0  0  0  0  0  0
   -2.8247   -4.0698    1.4240 O   0  0  0  0  0  0  0  0  0  0  0  0
   -3.2223   -3.8867   -1.0556 O   0  0  0  0  0  0  0  0  0  0  0  0
    1.1869   -1.0697   -0.8434 O   0  0  0  0  0  0  0  0  0  0  0  0
    0.8409    1.4144   -0.6047 O   0  0  0  0  0  0  0  0  0  0  0  0
   -7.5030   -2.4589    2.7321 S   0  0  0  0  0  0  0  0  0  0  0  0
   -3.4637   -3.4160    0.2963 S   0  0  0  0  0  0  0  0  0  0  0  0
    0.6576    0.0628   -0.1004 S   0  0  0  0  0  0  0  0  0  0  0  0
   -1.4118    2.4945    0.4032 Cl  0  0  0  0  0  0  0  0  0  0  0  0
  -11.4646   -2.9769    7.5906 H   0  0  0  0  0  0  0  0  0  0  0  0
  -10.4197   -4.9513    6.5112 H   0  0  0  0  0  0  0  0  0  0  0  0
  -11.5161   -0.7976    6.4052 H   0  0  0  0  0  0  0  0  0  0  0  0
   -9.4277   -4.7525    4.2549 H   0  0  0  0  0  0  0  0  0  0  0  0
  -10.5270   -0.5884    4.1488 H   0  0  0  0  0  0  0  0  0  0  0  0
   -3.9938    1.4214    0.7320 H   0  0  0  0  0  0  0  0  0  0  0  0
   -0.8403   -2.3396   -0.0387 H   0  0  0  0  0  0  0  0  0  0  0  0
   -9.6128   -3.3799    2.0558 H   0  0  0  0  0  0  0  0  0  0  0  0
   -9.6857   -1.6298    2.1859 H   0  0  0  0  0  0  0  0  0  0  0  0
   -7.5671   -3.1868    0.4443 H   0  0  0  0  0  0  0  0  0  0  0  0
   -7.6458   -1.4224    0.5680 H   0  0  0  0  0  0  0  0  0  0  0  0
   -5.7538   -0.1636    0.8927 H   0  0  0  0  0  0  0  0  0  0  0  0
    1.7809   -0.8323    1.7837 H   0  0  0  0  0  0  0  0  0  0  0  0
    1.5423    0.8649    1.9458 H   0  0  0  0  0  0  0  0  0  0  0  0
  1  2  2  0  0  0  0
  1  3  1  0  0  0  0
  1 27  1  0  0  0  0
  2  4  1  0  0  0  0
  2 28  1  0  0  0  0
  3  5  2  0  0  0  0
  3 29  1  0  0  0  0
  4  8  2  0  0  0  0
  4 30  1  0  0  0  0
  5  8  1  0  0  0  0
  5 31  1  0  0  0  0
  6  9  2  0  0  0  0
  6 12  1  0  0  0  0
  6 32  1  0  0  0  0
  7 10  2  0  0  0  0
  7 11  1  0  0  0  0
  7 33  1  0  0  0  0
  8 14  1  0  0  0  0
  9 10  1  0  0  0  0
  9 17  1  0  0  0  0
 10 24  1  0  0  0  0
 11 12  2  0  0  0  0
 11 25  1  0  0  0  0
 12 26  1  0  0  0  0
 13 15  1  0  0  0  0
 13 16  2  0  0  0  0
 13 17  1  0  0  0  0
 14 23  1  0  0  0  0
 14 34  1  0  0  0  0
 14 35  1  0  0  0  0
 15 23  1  0  0  0  0
 15 36  1  0  0  0  0
 15 37  1  0  0  0  0
 16 24  1  0  0  0  0
 17 38  1  0  0  0  0
 18 25  1  0  0  0  0
 18 39  1  0  0  0  0
 18 40  1  0  0  0  0
 19 24  2  0  0  0  0
 20 24  2  0  0  0  0
 21 25  2  0  0  0  0
 22 25  2  0  0  0  0
M  END
$$$$
DrugBank_5711
 OpenBabel01151909533D

 38 42  0  0  0  0  0  0  0  0999 V2000
   -1.3473    2.8378    0.2477 C   0  0  0  0  0  0  0  0  0  0  0  0
   -0.8492    2.4117   -0.9835 C   0  0  0  0  0  0  0  0  0  0  0  0
   -1.2556    2.0051    1.3631 C   0  0  0  0  0  0  0  0  0  0  0  0
   -0.2596    1.1529   -1.0995 C   0  0  0  0  0  0  0  0  0  0  0  0
   -0.6660    0.7464    1.2471 C   0  0  0  0  0  0  0  0  0  0  0  0
   -2.3642   -1.9778   -1.4155 C   0  0  0  0  0  0  0  0  0  0  0  0
   -3.3316   -2.0921   -2.4097 C   0  0  0  0  0  0  0  0  0  0  0  0
   -0.1680    0.3202    0.0158 C   0  0  0  0  0  0  0  0  0  0  0  0
    0.0290   -2.0344   -0.9337 C   0  0  0  0  0  0  0  0  0  0  0  0
   -1.0595   -2.1347   -1.8622 C   0  0  0  0  0  0  0  0  0  0  0  0
    0.4412   -0.9810   -0.1038 C   0  0  0  0  0  0  0  0  0  0  0  0
    0.9275   -3.0410   -0.6791 C   0  0  0  0  0  0  0  0  0  0  0  0
   -2.8988   -2.3423   -3.6979 C   0  0  0  0  0  0  0  0  0  0  0  0
   -4.7339   -2.0274   -2.5279 C   0  0  0  0  0  0  0  0  0  0  0  0
    1.1079   -4.3690   -1.1581 C   0  0  0  0  0  0  0  0  0  0  0  0
    2.1244   -5.1136   -0.6847 C   0  0  0  0  0  0  0  0  0  0  0  0
    3.0460   -4.5917    0.3084 C   0  0  0  0  0  0  0  0  0  0  0  0
    2.8794   -3.3397    0.7628 C   0  0  0  0  0  0  0  0  0  0  0  0
   -0.7007   -2.3803   -3.1498 N   0  0  0  0  0  0  0  0  0  0  0  0
    1.5160   -1.2785    0.6277 N   0  0  0  0  0  0  0  0  0  0  0  0
   -1.6246   -2.4884   -4.0934 N   0  0  0  0  0  0  0  0  0  0  0  0
   -5.1577   -2.2202   -3.7821 N   0  0  0  0  0  0  0  0  0  0  0  0
   -4.0173   -2.4093   -4.4717 N   0  0  0  0  0  0  0  0  0  0  0  0
    1.8260   -2.5563    0.2776 N   0  0  0  0  0  0  0  0  0  0  0  0
   -5.5312   -1.7923   -1.4528 N   0  0  0  0  0  0  0  0  0  0  0  0
   -1.8054    3.8183    0.3385 H   0  0  0  0  0  0  0  0  0  0  0  0
   -0.9194    3.0603   -1.8518 H   0  0  0  0  0  0  0  0  0  0  0  0
   -1.6423    2.3377    2.3219 H   0  0  0  0  0  0  0  0  0  0  0  0
    0.1239    0.8351   -2.0663 H   0  0  0  0  0  0  0  0  0  0  0  0
   -0.6022    0.1091    2.1261 H   0  0  0  0  0  0  0  0  0  0  0  0
   -2.6132   -1.7832   -0.3791 H   0  0  0  0  0  0  0  0  0  0  0  0
    0.4289   -4.7744   -1.9007 H   0  0  0  0  0  0  0  0  0  0  0  0
    2.2809   -6.1277   -1.0358 H   0  0  0  0  0  0  0  0  0  0  0  0
    3.8506   -5.2251    0.6617 H   0  0  0  0  0  0  0  0  0  0  0  0
    3.5324   -2.8924    1.5022 H   0  0  0  0  0  0  0  0  0  0  0  0
   -4.0785   -2.5763   -5.4684 H   0  0  0  0  0  0  0  0  0  0  0  0
   -6.5486   -1.6982   -1.5462 H   0  0  0  0  0  0  0  0  0  0  0  0
   -5.1406   -1.6060   -0.5225 H   0  0  0  0  0  0  0  0  0  0  0  0
  1  2  2  0  0  0  0
  1  3  1  0  0  0  0
  1 26  1  0  0  0  0
  2  4  1  0  0  0  0
  2 27  1  0  0  0  0
  3  5  2  0  0  0  0
  3 28  1  0  0  0  0
  4  8  2  0  0  0  0
  4 29  1  0  0  0  0
  5  8  1  0  0  0  0
  5 30  1  0  0  0  0
  6  7  2  0  0  0  0
  6 10  1  0  0  0  0
  6 31  1  0  0  0  0
  7 13  1  0  0  0  0
  7 14  1  0  0  0  0
  8 11  1  0  0  0  0
  9 10  1  0  0  0  0
  9 11  1  0  0  0  0
  9 12  2  0  0  0  0
 10 19  2  0  0  0  0
 11 20  2  0  0  0  0
 12 15  1  0  0  0  0
 12 24  1  0  0  0  0
 13 21  2  0  0  0  0
 13 23  1  0  0  0  0
 14 22  2  0  0  0  0
 14 25  1  0  0  0  0
 15 16  2  0  0  0  0
 15 32  1  0  0  0  0
 16 17  1  0  0  0  0
 16 33  1  0  0  0  0
 17 18  2  0  0  0  0
 17 34  1  0  0  0  0
 18 24  1  0  0  0  0
 18 35  1  0  0  0  0
 19 21  1  0  0  0  0
 20 24  1  0  0  0  0
 22 23  1  0  0  0  0
 23 36  1  0  0  0  0
 25 37  1  0  0  0  0
 25 38  1  0  0  0  0
M  END
$$$$
DrugBank_472
 OpenBabel01151909533D

 42 42  0  0  0  0  0  0  0  0999 V2000
   -3.8868   -6.9154    2.0642 C   0  0  0  0  0  0  0  0  0  0  0  0
   -3.9673   -5.8555    1.1855 C   0  0  0  0  0  0  0  0  0  0  0  0
   -4.1080   -7.4962   -0.2631 C   0  0  0  0  0  0  0  0  0  0  0  0
   -4.6329    0.2310   -1.6062 C   0  0  0  0  0  0  0  0  0  0  0  0
   -3.4099   -0.3423   -1.6114 C   0  0  0  0  0  0  0  0  0  0  0  0
   -1.3267   -0.7909   -3.0308 C   0  0  0  0  0  0  0  0  0  0  0  0
   -2.1321   -7.7787   -2.6273 C   0  0  0  0  0  0  0  0  0  0  0  0
   -3.2041   -9.9095   -2.9152 C   0  0  0  0  0  0  0  0  0  0  0  0
   -3.9284   -4.3995    1.5598 C   0  0  0  0  0  0  0  0  0  0  0  0
   -4.2305   -8.2237   -1.5451 C   0  0  0  0  0  0  0  0  0  0  0  0
   -3.5420   -1.1824    0.7798 C   0  0  0  0  0  0  0  0  0  0  0  0
   -2.6949   -1.9608    1.7772 C   0  0  0  0  0  0  0  0  0  0  0  0
   -4.0938   -6.1866   -0.1495 N   0  0  0  0  0  0  0  0  0  0  0  0
   -2.6458   -0.2607   -2.7810 N   0  0  0  0  0  0  0  0  0  0  0  0
   -2.8914   -1.0062   -0.4977 N   0  0  0  0  0  0  0  0  0  0  0  0
   -2.9780   -8.7942   -1.9872 N   0  0  0  0  0  0  0  0  0  0  0  0
   -5.1207    0.8961   -2.7615 N   0  0  0  0  0  0  0  0  0  0  0  0
   -5.2336    0.2268   -3.7993 O   0  0  0  0  0  0  0  0  0  0  0  0
   -5.3990    2.0994   -2.6517 O   0  0  0  0  0  0  0  0  0  0  0  0
   -3.9738   -8.3913    1.1949 S   0  0  0  0  0  0  0  0  0  0  0  0
   -2.3265   -3.6454    1.1992 S   0  0  0  0  0  0  0  0  0  0  0  0
   -3.7851   -6.8978    3.1402 H   0  0  0  0  0  0  0  0  0  0  0  0
   -5.3519    0.2667   -0.8019 H   0  0  0  0  0  0  0  0  0  0  0  0
   -0.9524   -1.3023   -2.1402 H   0  0  0  0  0  0  0  0  0  0  0  0
   -0.6370    0.0175   -3.2883 H   0  0  0  0  0  0  0  0  0  0  0  0
   -1.3564   -1.5034   -3.8595 H   0  0  0  0  0  0  0  0  0  0  0  0
   -1.9605   -6.9457   -1.9406 H   0  0  0  0  0  0  0  0  0  0  0  0
   -2.6173   -7.3968   -3.5296 H   0  0  0  0  0  0  0  0  0  0  0  0
   -1.1669   -8.2109   -2.9045 H   0  0  0  0  0  0  0  0  0  0  0  0
   -3.8335  -10.6688   -2.4437 H   0  0  0  0  0  0  0  0  0  0  0  0
   -2.2514  -10.3668   -3.1957 H   0  0  0  0  0  0  0  0  0  0  0  0
   -3.7018   -9.5527   -3.8209 H   0  0  0  0  0  0  0  0  0  0  0  0
   -4.7080   -3.8486    1.0220 H   0  0  0  0  0  0  0  0  0  0  0  0
   -4.1415   -4.2794    2.6278 H   0  0  0  0  0  0  0  0  0  0  0  0
   -4.9544   -9.0538   -1.4760 H   0  0  0  0  0  0  0  0  0  0  0  0
   -4.5884   -7.5717   -2.3600 H   0  0  0  0  0  0  0  0  0  0  0  0
   -3.7348   -0.1785    1.1725 H   0  0  0  0  0  0  0  0  0  0  0  0
   -4.5100   -1.6626    0.6024 H   0  0  0  0  0  0  0  0  0  0  0  0
   -1.7482   -1.4459    1.9706 H   0  0  0  0  0  0  0  0  0  0  0  0
   -3.2338   -2.0468    2.7259 H   0  0  0  0  0  0  0  0  0  0  0  0
   -3.0868    0.2360   -3.5482 H   0  0  0  0  0  0  0  0  0  0  0  0
   -1.9664   -1.4108   -0.5784 H   0  0  0  0  0  0  0  0  0  0  0  0
  1  2  2  0  0  0  0
  1 20  1  0  0  0  0
  1 22  1  0  0  0  0
  2  9  1  0  0  0  0
  2 13  1  0  0  0  0
  3 10  1  0  0  0  0
  3 13  2  0  0  0  0
  3 20  1  0  0  0  0
  4  5  2  0  0  0  0
  4 17  1  0  0  0  0
  4 23  1  0  0  0  0
  5 14  1  0  0  0  0
  5 15  1  0  0  0  0
  6 14  1  0  0  0  0
  6 24  1  0  0  0  0
  6 25  1  0  0  0  0
  6 26  1  0  0  0  0
  7 16  1  0  0  0  0
  7 27  1  0  0  0  0
  7 28  1  0  0  0  0
  7 29  1  0  0  0  0
  8 16  1  0  0  0  0
  8 30  1  0  0  0  0
  8 31  1  0  0  0  0
  8 32  1  0  0  0  0
  9 21  1  0  0  0  0
  9 33  1  0  0  0  0
  9 34  1  0  0  0  0
 10 16  1  0  0  0  0
 10 35  1  0  0  0  0
 10 36  1  0  0  0  0
 11 12  1  0  0  0  0
 11 15  1  0  0  0  0
 11 37  1  0  0  0  0
 11 38  1  0  0  0  0
 12 21  1  0  0  0  0
 12 39  1  0  0  0  0
 12 40  1  0  0  0  0
 14 41  1  0  0  0  0
 15 42  1  0  0  0  0
 17 18  1  0  0  0  0
 17 19  2  0  0  0  0
M  END
$$$$
DrugBank_5737
 OpenBabel01151909533D

 27 26  0  0  1  0  0  0  0  0999 V2000
    4.6382    4.4268    4.9238 C   0  0  0  0  0  0  0  0  0  0  0  0
    3.3311    2.3052    1.8669 C   0  0  0  0  0  0  0  0  0  0  0  0
    2.5199    4.5164    2.6994 C   0  0  0  0  0  0  0  0  0  0  0  0
    4.8382    4.3027    1.8043 C   0  0  0  0  0  0  0  0  0  0  0  0
    4.1600    0.0539    5.0022 C   0  0  0  0  0  0  0  0  0  0  0  0
    4.2198    3.2367    4.0632 C   0  0  2  0  0  0  0  0  0  0  0  0
    3.7471    3.5830    2.6193 C   0  0  0  0  0  0  0  0  0  0  0  0
    2.4514    1.1497    6.7899 O   0  0  0  0  0  0  0  0  0  0  0  0
    3.2042    2.5186    4.7681 O   0  0  0  0  0  0  0  0  0  0  0  0
    3.6538    1.5023    5.9497 P   0  0  2  0  0  0  0  0  0  0  0  0
    3.8040    5.1318    5.0157 H   0  0  0  0  0  0  0  0  0  0  0  0
    4.9333    4.1222    5.9311 H   0  0  0  0  0  0  0  0  0  0  0  0
    5.4594    4.9873    4.4664 H   0  0  0  0  0  0  0  0  0  0  0  0
    4.1625    1.5986    1.7762 H   0  0  0  0  0  0  0  0  0  0  0  0
    2.9944    2.5378    0.8499 H   0  0  0  0  0  0  0  0  0  0  0  0
    2.5077    1.7956    2.3796 H   0  0  0  0  0  0  0  0  0  0  0  0
    2.7650    5.4443    3.2283 H   0  0  0  0  0  0  0  0  0  0  0  0
    1.6925    4.0382    3.2363 H   0  0  0  0  0  0  0  0  0  0  0  0
    2.1511    4.7849    1.7035 H   0  0  0  0  0  0  0  0  0  0  0  0
    5.1616    5.2207    2.3093 H   0  0  0  0  0  0  0  0  0  0  0  0
    5.7259    3.6756    1.6725 H   0  0  0  0  0  0  0  0  0  0  0  0
    4.4771    4.5917    0.8121 H   0  0  0  0  0  0  0  0  0  0  0  0
    3.2849   -0.4329    4.5645 H   0  0  0  0  0  0  0  0  0  0  0  0
    4.8385    0.3500    4.1982 H   0  0  0  0  0  0  0  0  0  0  0  0
    4.6727   -0.6592    5.6524 H   0  0  0  0  0  0  0  0  0  0  0  0
    5.0784    2.5572    3.9958 H   0  0  0  0  0  0  0  0  0  0  0  0
    4.7481    2.1712    6.5387 H   0  0  0  0  0  0  0  0  0  0  0  0
  1  6  1  0  0  0  0
  1 11  1  0  0  0  0
  1 12  1  0  0  0  0
  1 13  1  0  0  0  0
  2  7  1  0  0  0  0
  2 14  1  0  0  0  0
  2 15  1  0  0  0  0
  2 16  1  0  0  0  0
  3  7  1  0  0  0  0
  3 17  1  0  0  0  0
  3 18  1  0  0  0  0
  3 19  1  0  0  0  0
  4  7  1  0  0  0  0
  4 20  1  0  0  0  0
  4 21  1  0  0  0  0
  4 22  1  0  0  0  0
  5 10  1  0  0  0  0
  5 23  1  0  0  0  0
  5 24  1  0  0  0  0
  5 25  1  0  0  0  0
  6  7  1  0  0  0  0
  6  9  1  0  0  0  0
  6 26  1  6  0  0  0
  8 10  2  0  0  0  0
  9 10  1  0  0  0  0
 10 27  1  1  0  0  0
M  END
$$$$
DrugBank_3258
 OpenBabel01151909533D

 27 27  0  0  0  0  0  0  0  0999 V2000
    1.8851   -1.0363   -0.1124 C   0  0  0  0  0  0  0  0  0  0  0  0
    2.8783   -1.6520    2.0022 C   0  0  0  0  0  0  0  0  0  0  0  0
    0.8066   -0.4630    0.5610 C   0  0  0  0  0  0  0  0  0  0  0  0
    1.7997   -1.0786    2.6757 C   0  0  0  0  0  0  0  0  0  0  0  0
    2.9210   -1.6309    0.6081 C   0  0  0  0  0  0  0  0  0  0  0  0
    0.7638   -0.4841    1.9551 C   0  0  0  0  0  0  0  0  0  0  0  0
   -1.4281    0.7213    2.0858 C   0  0  0  0  0  0  0  0  0  0  0  0
    3.8415   -3.7182   -0.4321 C   0  0  0  0  0  0  0  0  0  0  0  0
    4.0742   -2.2439   -0.1120 C   0  0  0  0  0  0  0  0  0  0  0  0
   -0.3147    0.0895    2.6290 N   0  0  0  0  0  0  0  0  0  0  0  0
   -1.7068    0.9128    0.9121 O   0  0  0  0  0  0  0  0  0  0  0  0
   -2.0453    2.3750    4.2105 O   0  0  0  0  0  0  0  0  0  0  0  0
   -3.2451    0.0621    4.0249 O   0  0  0  0  0  0  0  0  0  0  0  0
   -3.8904    1.8941    2.4259 O   0  0  0  0  0  0  0  0  0  0  0  0
   -2.6175    1.3518    3.2701 P   0  0  0  0  0  0  0  0  0  0  0  0
    1.9091   -1.0173   -1.1989 H   0  0  0  0  0  0  0  0  0  0  0  0
    3.6807   -2.1137    2.5716 H   0  0  0  0  0  0  0  0  0  0  0  0
    0.0050   -0.0021   -0.0107 H   0  0  0  0  0  0  0  0  0  0  0  0
    1.7760   -1.1016    3.7623 H   0  0  0  0  0  0  0  0  0  0  0  0
    3.6382   -4.2907    0.4793 H   0  0  0  0  0  0  0  0  0  0  0  0
    4.7214   -4.1531   -0.9164 H   0  0  0  0  0  0  0  0  0  0  0  0
    2.9869   -3.8438   -1.1054 H   0  0  0  0  0  0  0  0  0  0  0  0
    4.2751   -1.6997   -1.0489 H   0  0  0  0  0  0  0  0  0  0  0  0
    4.9954   -2.1461    0.4846 H   0  0  0  0  0  0  0  0  0  0  0  0
   -0.2824    0.0388    3.6525 H   0  0  0  0  0  0  0  0  0  0  0  0
   -3.9832    0.1972    4.6567 H   0  0  0  0  0  0  0  0  0  0  0  0
   -4.6867    2.1956    2.9130 H   0  0  0  0  0  0  0  0  0  0  0  0
  1  3  2  0  0  0  0
  1  5  1  0  0  0  0
  1 16  1  0  0  0  0
  2  4  1  0  0  0  0
  2  5  2  0  0  0  0
  2 17  1  0  0  0  0
  3  6  1  0  0  0  0
  3 18  1  0  0  0  0
  4  6  2  0  0  0  0
  4 19  1  0  0  0  0
  5  9  1  0  0  0  0
  6 10  1  0  0  0  0
  7 10  1  0  0  0  0
  7 11  2  0  0  0  0
  7 15  1  0  0  0  0
  8  9  1  0  0  0  0
  8 20  1  0  0  0  0
  8 21  1  0  0  0  0
  8 22  1  0  0  0  0
  9 23  1  0  0  0  0
  9 24  1  0  0  0  0
 10 25  1  0  0  0  0
 12 15  2  0  0  0  0
 13 15  1  0  0  0  0
 13 26  1  0  0  0  0
 14 15  1  0  0  0  0
 14 27  1  0  0  0  0
M  END
$$$$
DrugBank_3265
 OpenBabel01151909533D

 12 11  0  0  0  0  0  0  0  0999 V2000
    0.5277   -0.5926    0.7545 C   0  0  0  0  0  0  0  0  0  0  0  0
    2.0004   -0.2498    0.7801 C   0  0  0  0  0  0  0  0  0  0  0  0
    2.1151    0.2488   -1.7933 O   0  0  0  0  0  0  0  0  0  0  0  0
    2.9255   -1.9957   -0.9429 O   0  0  0  0  0  0  0  0  0  0  0  0
    4.2195    0.0919   -0.4380 O   0  0  0  0  0  0  0  0  0  0  0  0
    2.7642   -0.5619   -0.7783 S   0  0  0  0  0  0  0  0  0  0  0  0
    0.0068    0.0135    0.0075 H   0  0  0  0  0  0  0  0  0  0  0  0
    0.3749   -1.6483    0.5074 H   0  0  0  0  0  0  0  0  0  0  0  0
    0.0648   -0.4088    1.7295 H   0  0  0  0  0  0  0  0  0  0  0  0
    2.5294   -0.8513    1.5245 H   0  0  0  0  0  0  0  0  0  0  0  0
    2.1520    0.8090    1.0073 H   0  0  0  0  0  0  0  0  0  0  0  0
    4.2233    1.0692   -0.3061 H   0  0  0  0  0  0  0  0  0  0  0  0
  1  2  1  0  0  0  0
  1  7  1  0  0  0  0
  1  8  1  0  0  0  0
  1  9  1  0  0  0  0
  2  6  1  0  0  0  0
  2 10  1  0  0  0  0
  2 11  1  0  0  0  0
  3  6  2  0  0  0  0
  4  6  2  0  0  0  0
  5  6  1  0  0  0  0
  5 12  1  0  0  0  0
M  END
$$$$
DrugBank_3269
 OpenBabel01151909533D

 34 33  0  0  0  0  0  0  0  0999 V2000
   -0.1330   -0.1060    1.0835 C   0  0  0  0  0  0  0  0  0  0  0  0
   -1.3924   -0.9354    1.3455 C   0  0  0  0  0  0  0  0  0  0  0  0
    1.1066   -0.7695    1.6883 C   0  0  0  0  0  0  0  0  0  0  0  0
   -2.6351   -0.2539    0.7649 C   0  0  0  0  0  0  0  0  0  0  0  0
    2.3691    0.0474    1.3985 C   0  0  0  0  0  0  0  0  0  0  0  0
   -3.9291   -1.0330    1.0092 C   0  0  0  0  0  0  0  0  0  0  0  0
    3.6309   -0.5305    2.0440 C   0  0  0  0  0  0  0  0  0  0  0  0
    6.0198   -0.2768    2.4308 C   0  0  0  0  0  0  0  0  0  0  0  0
   -5.0954   -0.3611    0.4490 N   0  0  0  0  0  0  0  0  0  0  0  0
    6.1102    0.0676    3.8459 N   0  0  0  0  0  0  0  0  0  0  0  0
    7.1954    0.2580    1.7493 N   0  0  0  0  0  0  0  0  0  0  0  0
    4.8174    0.2846    1.8116 N   0  0  0  0  0  0  0  0  0  0  0  0
   -0.2590    0.8965    1.5104 H   0  0  0  0  0  0  0  0  0  0  0  0
    0.0079    0.0175    0.0029 H   0  0  0  0  0  0  0  0  0  0  0  0
   -1.2762   -1.9296    0.8975 H   0  0  0  0  0  0  0  0  0  0  0  0
   -1.5098   -1.0770    2.4259 H   0  0  0  0  0  0  0  0  0  0  0  0
    0.9761   -0.8710    2.7725 H   0  0  0  0  0  0  0  0  0  0  0  0
    1.2089   -1.7802    1.2768 H   0  0  0  0  0  0  0  0  0  0  0  0
   -2.5064   -0.1382   -0.3187 H   0  0  0  0  0  0  0  0  0  0  0  0
   -2.7286    0.7581    1.1788 H   0  0  0  0  0  0  0  0  0  0  0  0
    2.5134    0.1317    0.3140 H   0  0  0  0  0  0  0  0  0  0  0  0
    2.2300    1.0683    1.7758 H   0  0  0  0  0  0  0  0  0  0  0  0
   -3.8407   -2.0203    0.5430 H   0  0  0  0  0  0  0  0  0  0  0  0
   -4.0776   -1.1922    2.0831 H   0  0  0  0  0  0  0  0  0  0  0  0
    3.8135   -1.5455    1.6747 H   0  0  0  0  0  0  0  0  0  0  0  0
    3.4735   -0.6086    3.1254 H   0  0  0  0  0  0  0  0  0  0  0  0
    6.0383   -1.3668    2.3174 H   0  0  0  0  0  0  0  0  0  0  0  0
   -5.9909   -0.5678    0.8383 H   0  0  0  0  0  0  0  0  0  0  0  0
   -4.9914    0.1166   -0.4213 H   0  0  0  0  0  0  0  0  0  0  0  0
    6.9698   -0.3233    4.2291 H   0  0  0  0  0  0  0  0  0  0  0  0
    5.3476   -0.3751    4.3558 H   0  0  0  0  0  0  0  0  0  0  0  0
    8.0345   -0.1634    2.1454 H   0  0  0  0  0  0  0  0  0  0  0  0
    7.1682   -0.0275    0.7716 H   0  0  0  0  0  0  0  0  0  0  0  0
    4.9722    0.3451    0.8049 H   0  0  0  0  0  0  0  0  0  0  0  0
  1  2  1  0  0  0  0
  1  3  1  0  0  0  0
  1 13  1  0  0  0  0
  1 14  1  0  0  0  0
  2  4  1  0  0  0  0
  2 15  1  0  0  0  0
  2 16  1  0  0  0  0
  3  5  1  0  0  0  0
  3 17  1  0  0  0  0
  3 18  1  0  0  0  0
  4  6  1  0  0  0  0
  4 19  1  0  0  0  0
  4 20  1  0  0  0  0
  5  7  1  0  0  0  0
  5 21  1  0  0  0  0
  5 22  1  0  0  0  0
  6  9  1  0  0  0  0
  6 23  1  0  0  0  0
  6 24  1  0  0  0  0
  7 12  1  0  0  0  0
  7 25  1  0  0  0  0
  7 26  1  0  0  0  0
  8 10  1  0  0  0  0
  8 11  1  0  0  0  0
  8 12  1  0  0  0  0
  8 27  1  0  0  0  0
  9 28  1  0  0  0  0
  9 29  1  0  0  0  0
 10 30  1  0  0  0  0
 10 31  1  0  0  0  0
 11 32  1  0  0  0  0
 11 33  1  0  0  0  0
 12 34  1  0  0  0  0
M  END
$$$$
DrugBank_546
 OpenBabel01151909533D

 22 21  0  0  0  0  0  0  0  0999 V2000
   -2.7714   -1.4929    0.2329 C   0  0  0  0  0  0  0  0  0  0  0  0
   -3.3061   -2.8788    0.3806 C   0  0  0  0  0  0  0  0  0  0  0  0
   -0.1045    0.3271    1.0421 C   0  0  0  0  0  0  0  0  0  0  0  0
   -1.5744    0.3177    1.4459 C   0  0  0  0  0  0  0  0  0  0  0  0
    0.7520   -0.5522    1.9430 C   0  0  0  0  0  0  0  0  0  0  0  0
   -2.1580   -0.9935    1.3714 N   0  0  0  0  0  0  0  0  0  0  0  0
   -2.8987   -0.9069   -0.8358 O   0  0  0  0  0  0  0  0  0  0  0  0
    2.9219    0.8725    1.5601 O   0  0  0  0  0  0  0  0  0  0  0  0
    2.6194   -1.2751    0.2508 O   0  0  0  0  0  0  0  0  0  0  0  0
    3.0519   -1.3476    2.7197 O   0  0  0  0  0  0  0  0  0  0  0  0
    2.4504   -0.4970    1.4646 S   0  0  0  0  0  0  0  0  0  0  0  0
   -4.3486   -2.8915    0.7370 H   0  0  0  0  0  0  0  0  0  0  0  0
   -3.3181   -3.4288   -0.5741 H   0  0  0  0  0  0  0  0  0  0  0  0
   -2.7527   -3.5253    1.0803 H   0  0  0  0  0  0  0  0  0  0  0  0
    0.2665    1.3585    1.0852 H   0  0  0  0  0  0  0  0  0  0  0  0
    0.0000    0.0000   -0.0000 H   0  0  0  0  0  0  0  0  0  0  0  0
   -1.7036    0.6836    2.4695 H   0  0  0  0  0  0  0  0  0  0  0  0
   -2.1522    0.9625    0.7765 H   0  0  0  0  0  0  0  0  0  0  0  0
    0.7051   -0.2196    2.9842 H   0  0  0  0  0  0  0  0  0  0  0  0
    0.4462   -1.6013    1.8931 H   0  0  0  0  0  0  0  0  0  0  0  0
   -2.1189   -1.5873    2.1990 H   0  0  0  0  0  0  0  0  0  0  0  0
    2.9870   -0.9065    3.5993 H   0  0  0  0  0  0  0  0  0  0  0  0
  1  2  1  0  0  0  0
  1  6  1  0  0  0  0
  1  7  2  0  0  0  0
  2 12  1  0  0  0  0
  2 13  1  0  0  0  0
  2 14  1  0  0  0  0
  3  4  1  0  0  0  0
  3  5  1  0  0  0  0
  3 15  1  0  0  0  0
  3 16  1  0  0  0  0
  4  6  1  0  0  0  0
  4 17  1  0  0  0  0
  4 18  1  0  0  0  0
  5 11  1  0  0  0  0
  5 19  1  0  0  0  0
  5 20  1  0  0  0  0
  6 21  1  0  0  0  0
  8 11  2  0  0  0  0
  9 11  2  0  0  0  0
 10 11  1  0  0  0  0
 10 22  1  0  0  0  0
M  END
$$$$
DrugBank_556
 OpenBabel01151909533D

 41 42  0  0  0  0  0  0  0  0999 V2000
   -0.7671    0.1975    0.7446 C   0  0  0  0  0  0  0  0  0  0  0  0
   -1.8022   -0.7245    0.9247 C   0  0  0  0  0  0  0  0  0  0  0  0
   -1.6773    1.6439    2.4698 C   0  0  0  0  0  0  0  0  0  0  0  0
   -4.5471   -0.4724    3.2738 C   0  0  0  0  0  0  0  0  0  0  0  0
   -2.7304    0.7292    2.6692 C   0  0  0  0  0  0  0  0  0  0  0  0
   -0.7036    1.3640    1.5041 C   0  0  0  0  0  0  0  0  0  0  0  0
   -3.8586    0.6897    3.5356 C   0  0  0  0  0  0  0  0  0  0  0  0
   -2.7685   -0.4315    1.8936 C   0  0  0  0  0  0  0  0  0  0  0  0
    2.2889    4.7174    1.9093 C   0  0  0  0  0  0  0  0  0  0  0  0
   -6.2396    4.8743    4.4757 C   0  0  0  0  0  0  0  0  0  0  0  0
   -4.0191    4.7004    5.3765 C   0  0  0  0  0  0  0  0  0  0  0  0
   -4.2329    1.7072    4.5385 C   0  0  0  0  0  0  0  0  0  0  0  0
    0.4151    2.3281    1.2867 C   0  0  0  0  0  0  0  0  0  0  0  0
   -4.8712    2.9737    3.9395 C   0  0  0  0  0  0  0  0  0  0  0  0
   -3.8818   -1.1421    2.2822 N   0  0  0  0  0  0  0  0  0  0  0  0
    2.7122    3.3418    2.2275 N   0  0  0  0  0  0  0  0  0  0  0  0
   -5.2050    3.9421    4.9494 N   0  0  0  0  0  0  0  0  0  0  0  0
    0.8341    2.6190    3.8538 O   0  0  0  0  0  0  0  0  0  0  0  0
    2.1369    0.8671    2.5929 O   0  0  0  0  0  0  0  0  0  0  0  0
    1.5250    2.1857    2.6495 S   0  0  0  0  0  0  0  0  0  0  0  0
   -0.0039   -0.0093   -0.0024 H   0  0  0  0  0  0  0  0  0  0  0  0
   -1.8510   -1.6322    0.3327 H   0  0  0  0  0  0  0  0  0  0  0  0
   -1.6219    2.5555    3.0590 H   0  0  0  0  0  0  0  0  0  0  0  0
   -5.4503   -0.8837    3.7027 H   0  0  0  0  0  0  0  0  0  0  0  0
    1.4472    5.0076    2.5434 H   0  0  0  0  0  0  0  0  0  0  0  0
    1.9807    4.7853    0.8624 H   0  0  0  0  0  0  0  0  0  0  0  0
    3.1135    5.4152    2.0778 H   0  0  0  0  0  0  0  0  0  0  0  0
   -7.1261    4.3207    4.1555 H   0  0  0  0  0  0  0  0  0  0  0  0
   -5.8645    5.4574    3.6302 H   0  0  0  0  0  0  0  0  0  0  0  0
   -6.5243    5.5618    5.2767 H   0  0  0  0  0  0  0  0  0  0  0  0
   -3.2433    4.0166    5.7307 H   0  0  0  0  0  0  0  0  0  0  0  0
   -4.2807    5.3861    6.1871 H   0  0  0  0  0  0  0  0  0  0  0  0
   -3.6209    5.2818    4.5406 H   0  0  0  0  0  0  0  0  0  0  0  0
   -3.3399    2.0181    5.1160 H   0  0  0  0  0  0  0  0  0  0  0  0
   -4.9230    1.2890    5.2989 H   0  0  0  0  0  0  0  0  0  0  0  0
    0.0659    3.3654    1.2422 H   0  0  0  0  0  0  0  0  0  0  0  0
    0.9759    2.1127    0.3705 H   0  0  0  0  0  0  0  0  0  0  0  0
   -4.1857    3.4671    3.2434 H   0  0  0  0  0  0  0  0  0  0  0  0
   -5.7914    2.7307    3.3980 H   0  0  0  0  0  0  0  0  0  0  0  0
   -4.1663   -2.0295    1.8912 H   0  0  0  0  0  0  0  0  0  0  0  0
    3.5039    3.0077    1.6627 H   0  0  0  0  0  0  0  0  0  0  0  0
  1  2  2  0  0  0  0
  1  6  1  0  0  0  0
  1 21  1  0  0  0  0
  2  8  1  0  0  0  0
  2 22  1  0  0  0  0
  3  5  1  0  0  0  0
  3  6  2  0  0  0  0
  3 23  1  0  0  0  0
  4  7  2  0  0  0  0
  4 15  1  0  0  0  0
  4 24  1  0  0  0  0
  5  7  1  0  0  0  0
  5  8  2  0  0  0  0
  6 13  1  0  0  0  0
  7 12  1  0  0  0  0
  8 15  1  0  0  0  0
  9 16  1  0  0  0  0
  9 25  1  0  0  0  0
  9 26  1  0  0  0  0
  9 27  1  0  0  0  0
 10 17  1  0  0  0  0
 10 28  1  0  0  0  0
 10 29  1  0  0  0  0
 10 30  1  0  0  0  0
 11 17  1  0  0  0  0
 11 31  1  0  0  0  0
 11 32  1  0  0  0  0
 11 33  1  0  0  0  0
 12 14  1  0  0  0  0
 12 34  1  0  0  0  0
 12 35  1  0  0  0  0
 13 20  1  0  0  0  0
 13 36  1  0  0  0  0
 13 37  1  0  0  0  0
 14 17  1  0  0  0  0
 14 38  1  0  0  0  0
 14 39  1  0  0  0  0
 15 40  1  0  0  0  0
 16 20  1  0  0  0  0
 16 41  1  0  0  0  0
 18 20  2  0  0  0  0
 19 20  2  0  0  0  0
M  END
$$$$
DrugBank_5779
 OpenBabel01151909533D

 37 39  0  0  0  0  0  0  0  0999 V2000
   -1.6960    1.7535   -6.6539 C   0  0  0  0  0  0  0  0  0  0  0  0
   -2.3784    2.0602   -5.7150 C   0  0  0  0  0  0  0  0  0  0  0  0
   -1.7967   -0.5250   -1.0622 C   0  0  0  0  0  0  0  0  0  0  0  0
   -0.6868    0.2706   -0.7963 C   0  0  0  0  0  0  0  0  0  0  0  0
   -1.3478    1.7723   -2.5758 C   0  0  0  0  0  0  0  0  0  0  0  0
   -2.4648    0.9759   -2.8709 C   0  0  0  0  0  0  0  0  0  0  0  0
   -2.6786   -0.1680   -2.0885 C   0  0  0  0  0  0  0  0  0  0  0  0
   -0.4650    1.4196   -1.5494 C   0  0  0  0  0  0  0  0  0  0  0  0
   -3.4383    1.2775   -3.9401 C   0  0  0  0  0  0  0  0  0  0  0  0
   -4.5226    0.5052   -4.1364 C   0  0  0  0  0  0  0  0  0  0  0  0
   -4.7538   -0.7046   -3.2809 C   0  0  0  0  0  0  0  0  0  0  0  0
   -0.0551    2.4497   -8.4489 C   0  0  0  0  0  0  0  0  0  0  0  0
    0.6152    1.3962   -7.6183 C   0  0  0  0  0  0  0  0  0  0  0  0
   -0.8652    1.3799   -7.7978 C   0  0  0  0  0  0  0  0  0  0  0  0
   -5.6360   -0.4464   -6.1398 C   0  0  0  0  0  0  0  0  0  0  0  0
   -6.9392    0.9668   -4.5202 C   0  0  0  0  0  0  0  0  0  0  0  0
   -5.5844    0.7340   -5.1783 C   0  0  0  0  0  0  0  0  0  0  0  0
   -3.8058   -0.9715   -2.3185 N   0  0  0  0  0  0  0  0  0  0  0  0
   -5.7419   -1.4191   -3.4468 O   0  0  0  0  0  0  0  0  0  0  0  0
   -3.1303    2.3981   -4.6818 O   0  0  0  0  0  0  0  0  0  0  0  0
    0.5989    2.1920   -1.2915 F   0  0  0  0  0  0  0  0  0  0  0  0
   -1.9699   -1.4154   -0.4635 H   0  0  0  0  0  0  0  0  0  0  0  0
    0.0004   -0.0000   -0.0005 H   0  0  0  0  0  0  0  0  0  0  0  0
   -1.1408    2.6766   -3.1431 H   0  0  0  0  0  0  0  0  0  0  0  0
   -0.0774    3.4602   -8.0583 H   0  0  0  0  0  0  0  0  0  0  0  0
    0.0599    2.3917   -9.5247 H   0  0  0  0  0  0  0  0  0  0  0  0
    1.1804    0.6303   -8.1360 H   0  0  0  0  0  0  0  0  0  0  0  0
    1.0450    1.7018   -6.6717 H   0  0  0  0  0  0  0  0  0  0  0  0
   -1.2944    0.6163   -8.4172 H   0  0  0  0  0  0  0  0  0  0  0  0
   -5.9072   -1.3754   -5.6257 H   0  0  0  0  0  0  0  0  0  0  0  0
   -4.6669   -0.6026   -6.6266 H   0  0  0  0  0  0  0  0  0  0  0  0
   -6.3780   -0.2677   -6.9254 H   0  0  0  0  0  0  0  0  0  0  0  0
   -7.2563    0.0885   -3.9469 H   0  0  0  0  0  0  0  0  0  0  0  0
   -7.7177    1.1840   -5.2604 H   0  0  0  0  0  0  0  0  0  0  0  0
   -6.8869    1.8146   -3.8287 H   0  0  0  0  0  0  0  0  0  0  0  0
   -5.3106    1.6341   -5.7370 H   0  0  0  0  0  0  0  0  0  0  0  0
   -3.9297   -1.7985   -1.7412 H   0  0  0  0  0  0  0  0  0  0  0  0
  1  2  3  0  0  0  0
  1 14  1  0  0  0  0
  2 20  1  0  0  0  0
  3  4  2  0  0  0  0
  3  7  1  0  0  0  0
  3 22  1  0  0  0  0
  4  8  1  0  0  0  0
  4 23  1  0  0  0  0
  5  6  1  0  0  0  0
  5  8  2  0  0  0  0
  5 24  1  0  0  0  0
  6  7  2  0  0  0  0
  6  9  1  0  0  0  0
  7 18  1  0  0  0  0
  8 21  1  0  0  0  0
  9 10  2  0  0  0  0
  9 20  1  0  0  0  0
 10 11  1  0  0  0  0
 10 17  1  0  0  0  0
 11 18  1  0  0  0  0
 11 19  2  0  0  0  0
 12 13  1  0  0  0  0
 12 14  1  0  0  0  0
 12 25  1  0  0  0  0
 12 26  1  0  0  0  0
 13 14  1  0  0  0  0
 13 27  1  0  0  0  0
 13 28  1  0  0  0  0
 14 29  1  0  0  0  0
 15 17  1  0  0  0  0
 15 30  1  0  0  0  0
 15 31  1  0  0  0  0
 15 32  1  0  0  0  0
 16 17  1  0  0  0  0
 16 33  1  0  0  0  0
 16 34  1  0  0  0  0
 16 35  1  0  0  0  0
 17 36  1  0  0  0  0
 18 37  1  0  0  0  0
M  END
$$$$
DrugBank_3278
 OpenBabel01151909533D

112113  0  0  1  0  0  0  0  0999 V2000
   -7.0880   -0.8661   10.3756 C   0  0  0  0  0  0  0  0  0  0  0  0
  -12.4955   -0.8750   13.6744 C   0  0  0  0  0  0  0  0  0  0  0  0
   -7.0911   -2.1977    9.9602 C   0  0  0  0  0  0  0  0  0  0  0  0
   -7.1145    0.1594    9.4305 C   0  0  0  0  0  0  0  0  0  0  0  0
  -12.6936    0.4312   14.1217 C   0  0  0  0  0  0  0  0  0  0  0  0
  -11.8675   -1.1054   12.4503 C   0  0  0  0  0  0  0  0  0  0  0  0
   -7.1206   -2.5037    8.5997 C   0  0  0  0  0  0  0  0  0  0  0  0
   -7.1440   -0.1467    8.0699 C   0  0  0  0  0  0  0  0  0  0  0  0
  -12.2638    1.5071   13.3450 C   0  0  0  0  0  0  0  0  0  0  0  0
  -11.4377   -0.0295   11.6736 C   0  0  0  0  0  0  0  0  0  0  0  0
   -7.1471   -1.4782    7.6545 C   0  0  0  0  0  0  0  0  0  0  0  0
  -11.6358    1.2768   12.1209 C   0  0  0  0  0  0  0  0  0  0  0  0
   -9.3990   -1.0093    2.8331 C   0  0  0  0  0  0  0  0  0  0  0  0
  -10.0097    4.5925    7.2646 C   0  0  0  0  0  0  0  0  0  0  0  0
   -7.2058   -0.8996    5.2038 C   0  0  0  0  0  0  0  0  0  0  0  0
  -10.5609    2.3225   10.0972 C   0  0  0  0  0  0  0  0  0  0  0  0
   -9.4826   -3.6886   -1.8025 C   0  0  0  0  0  0  0  0  0  0  0  0
   -5.0945    6.8609    6.8018 C   0  0  0  0  0  0  0  0  0  0  0  0
   -9.2146   -2.2447   -1.4091 C   0  0  0  0  0  0  0  0  0  0  0  0
   -5.7065    5.5420    6.3572 C   0  0  0  0  0  0  0  0  0  0  0  0
   -9.7922   -1.9233   -0.0301 C   0  0  0  0  0  0  0  0  0  0  0  0
   -7.2345    5.5969    6.3823 C   0  0  0  0  0  0  0  0  0  0  0  0
   -5.8216   -2.7436    2.0168 C   0  0  0  0  0  0  0  0  0  0  0  0
   -7.9519    3.8102   10.7230 C   0  0  0  0  0  0  0  0  0  0  0  0
   -4.4107   -3.0808    1.5210 C   0  0  0  0  0  0  0  0  0  0  0  0
   -7.0299    4.5761   11.6789 C   0  0  0  0  0  0  0  0  0  0  0  0
   -9.5448   -0.4578    0.3477 C   0  0  0  0  0  0  0  0  0  0  0  0
   -7.8452    4.2545    5.9617 C   0  0  0  0  0  0  0  0  0  0  0  0
   -5.8280   -1.9486    3.3298 C   0  0  0  0  0  0  0  0  0  0  0  0
   -9.3010    4.5061   10.4956 C   0  0  0  0  0  0  0  0  0  0  0  0
   -4.4024   -3.8513    0.2009 C   0  0  0  0  0  0  0  0  0  0  0  0
   -5.6767    3.8965   11.8870 C   0  0  0  0  0  0  0  0  0  0  0  0
   -9.8252    1.3604    2.1260 C   0  0  0  0  0  0  0  0  0  0  0  0
   -9.9872    3.0054    5.3212 C   0  0  0  0  0  0  0  0  0  0  0  0
  -10.0440   -0.1207    1.7669 C   0  0  2  0  0  0  0  0  0  0  0  0
   -9.3849    4.2994    5.8986 C   0  0  1  0  0  0  0  0  0  0  0  0
   -7.2328   -1.6439    3.8675 C   0  0  2  0  0  0  0  0  0  0  0  0
  -10.2566    3.7297    9.5797 C   0  0  1  0  0  0  0  0  0  0  0  0
   -3.0303   -4.1297   -0.2100 N   0  0  0  0  0  0  0  0  0  0  0  0
   -4.8541    4.6835   12.7997 N   0  0  0  0  0  0  0  0  0  0  0  0
   -7.1771   -1.7890    6.2743 N   0  0  0  0  0  0  0  0  0  0  0  0
  -11.1997    2.3685   11.3331 N   0  0  0  0  0  0  0  0  0  0  0  0
   -8.0234   -0.8864    2.9253 N   0  0  0  0  0  0  0  0  0  0  0  0
   -9.7512    3.6347    8.2298 N   0  0  0  0  0  0  0  0  0  0  0  0
  -10.3939    1.6926    3.4283 N   0  0  0  0  0  0  0  0  0  0  0  0
   -9.7835    2.9085    3.8817 N   0  0  0  0  0  0  0  0  0  0  0  0
  -10.0841   -1.7601    3.5276 O   0  0  0  0  0  0  0  0  0  0  0  0
  -10.6831    5.6070    7.4460 O   0  0  0  0  0  0  0  0  0  0  0  0
   -7.1814    0.3268    5.2595 O   0  0  0  0  0  0  0  0  0  0  0  0
  -10.2816    1.3202    9.4452 O   0  0  0  0  0  0  0  0  0  0  0  0
   -7.0659   -0.6274   11.4350 H   0  0  0  0  0  0  0  0  0  0  0  0
  -12.8293   -1.7131   14.2793 H   0  0  0  0  0  0  0  0  0  0  0  0
   -7.0714   -2.9964   10.6958 H   0  0  0  0  0  0  0  0  0  0  0  0
   -7.1131    1.1962    9.7543 H   0  0  0  0  0  0  0  0  0  0  0  0
  -13.1817    0.6109   15.0750 H   0  0  0  0  0  0  0  0  0  0  0  0
  -11.7124   -2.1227   12.1027 H   0  0  0  0  0  0  0  0  0  0  0  0
   -7.1229   -3.5452    8.2877 H   0  0  0  0  0  0  0  0  0  0  0  0
   -7.1645    0.6609    7.3423 H   0  0  0  0  0  0  0  0  0  0  0  0
  -12.4235    2.5208   13.7039 H   0  0  0  0  0  0  0  0  0  0  0  0
  -10.9493   -0.2211   10.7213 H   0  0  0  0  0  0  0  0  0  0  0  0
  -10.5567   -3.9002   -1.8104 H   0  0  0  0  0  0  0  0  0  0  0  0
   -9.0009   -4.3811   -1.1048 H   0  0  0  0  0  0  0  0  0  0  0  0
   -9.0899   -3.8876   -2.8045 H   0  0  0  0  0  0  0  0  0  0  0  0
   -5.4228    7.1249    7.8122 H   0  0  0  0  0  0  0  0  0  0  0  0
   -5.3783    7.6729    6.1248 H   0  0  0  0  0  0  0  0  0  0  0  0
   -4.0024    6.7891    6.8074 H   0  0  0  0  0  0  0  0  0  0  0  0
   -8.1330   -2.0667   -1.4110 H   0  0  0  0  0  0  0  0  0  0  0  0
   -9.6546   -1.5794   -2.1611 H   0  0  0  0  0  0  0  0  0  0  0  0
   -5.3583    5.3078    5.3445 H   0  0  0  0  0  0  0  0  0  0  0  0
   -5.3520    4.7408    7.0161 H   0  0  0  0  0  0  0  0  0  0  0  0
   -9.3338   -2.5781    0.7208 H   0  0  0  0  0  0  0  0  0  0  0  0
  -10.8677   -2.1353   -0.0323 H   0  0  0  0  0  0  0  0  0  0  0  0
   -7.5838    6.3866    5.7063 H   0  0  0  0  0  0  0  0  0  0  0  0
   -7.5684    5.8628    7.3919 H   0  0  0  0  0  0  0  0  0  0  0  0
   -6.3540   -2.1879    1.2360 H   0  0  0  0  0  0  0  0  0  0  0  0
   -6.3614   -3.6873    2.1586 H   0  0  0  0  0  0  0  0  0  0  0  0
   -7.4364    3.6634    9.7667 H   0  0  0  0  0  0  0  0  0  0  0  0
   -8.1218    2.8139   11.1479 H   0  0  0  0  0  0  0  0  0  0  0  0
   -3.9157   -3.6838    2.2934 H   0  0  0  0  0  0  0  0  0  0  0  0
   -3.8273   -2.1566    1.4215 H   0  0  0  0  0  0  0  0  0  0  0  0
   -7.5422    4.6630   12.6460 H   0  0  0  0  0  0  0  0  0  0  0  0
   -6.8849    5.5982   11.3067 H   0  0  0  0  0  0  0  0  0  0  0  0
  -10.0231    0.1934   -0.3938 H   0  0  0  0  0  0  0  0  0  0  0  0
   -8.4672   -0.2624    0.2849 H   0  0  0  0  0  0  0  0  0  0  0  0
   -7.5105    3.4716    6.6530 H   0  0  0  0  0  0  0  0  0  0  0  0
   -7.4480    3.9889    4.9744 H   0  0  0  0  0  0  0  0  0  0  0  0
   -5.2925   -1.0039    3.1838 H   0  0  0  0  0  0  0  0  0  0  0  0
   -5.2727   -2.5135    4.0895 H   0  0  0  0  0  0  0  0  0  0  0  0
   -9.1283    5.4993   10.0663 H   0  0  0  0  0  0  0  0  0  0  0  0
   -9.7885    4.6612   11.4667 H   0  0  0  0  0  0  0  0  0  0  0  0
   -4.9402   -4.7985    0.3134 H   0  0  0  0  0  0  0  0  0  0  0  0
   -4.8959   -3.2761   -0.5884 H   0  0  0  0  0  0  0  0  0  0  0  0
   -5.8179    2.8953   12.3074 H   0  0  0  0  0  0  0  0  0  0  0  0
   -5.1445    3.7902   10.9368 H   0  0  0  0  0  0  0  0  0  0  0  0
  -10.2858    2.0010    1.3645 H   0  0  0  0  0  0  0  0  0  0  0  0
   -8.7565    1.6012    2.1412 H   0  0  0  0  0  0  0  0  0  0  0  0
  -11.0630    2.9689    5.5299 H   0  0  0  0  0  0  0  0  0  0  0  0
   -9.5402    2.1250    5.7960 H   0  0  0  0  0  0  0  0  0  0  0  0
  -11.1230   -0.3280    1.8094 H   0  0  0  0  0  0  0  0  0  0  0  0
   -9.6760    5.1343    5.2449 H   0  0  0  0  0  0  0  0  0  0  0  0
   -7.7712   -2.5883    4.0141 H   0  0  0  0  0  0  0  0  0  0  0  0
  -11.2041    4.2774    9.5045 H   0  0  0  0  0  0  0  0  0  0  0  0
   -2.8513   -4.2817   -1.1795 H   0  0  0  0  0  0  0  0  0  0  0  0
   -2.3650   -4.3587    0.4972 H   0  0  0  0  0  0  0  0  0  0  0  0
   -3.8632    4.5823   12.7457 H   0  0  0  0  0  0  0  0  0  0  0  0
   -5.3030    5.1314   13.5698 H   0  0  0  0  0  0  0  0  0  0  0  0
   -7.1779   -2.7785    6.0364 H   0  0  0  0  0  0  0  0  0  0  0  0
  -11.3736    3.2958   11.7149 H   0  0  0  0  0  0  0  0  0  0  0  0
   -7.5289   -0.2695    2.2889 H   0  0  0  0  0  0  0  0  0  0  0  0
   -9.2156    2.8073    7.9878 H   0  0  0  0  0  0  0  0  0  0  0  0
  -11.3983    1.8331    3.3290 H   0  0  0  0  0  0  0  0  0  0  0  0
  -10.2298    3.7030    3.4236 H   0  0  0  0  0  0  0  0  0  0  0  0
  1  3  2  0  0  0  0
  1  4  1  0  0  0  0
  1 51  1  0  0  0  0
  2  5  2  0  0  0  0
  2  6  1  0  0  0  0
  2 52  1  0  0  0  0
  3  7  1  0  0  0  0
  3 53  1  0  0  0  0
  4  8  2  0  0  0  0
  4 54  1  0  0  0  0
  5  9  1  0  0  0  0
  5 55  1  0  0  0  0
  6 10  2  0  0  0  0
  6 56  1  0  0  0  0
  7 11  2  0  0  0  0
  7 57  1  0  0  0  0
  8 11  1  0  0  0  0
  8 58  1  0  0  0  0
  9 12  2  0  0  0  0
  9 59  1  0  0  0  0
 10 12  1  0  0  0  0
 10 60  1  0  0  0  0
 11 41  1  0  0  0  0
 12 42  1  0  0  0  0
 13 35  1  0  0  0  0
 13 43  1  0  0  0  0
 13 47  2  0  0  0  0
 14 36  1  0  0  0  0
 14 44  1  0  0  0  0
 14 48  2  0  0  0  0
 15 37  1  0  0  0  0
 15 41  1  0  0  0  0
 15 49  2  0  0  0  0
 16 38  1  0  0  0  0
 16 42  1  0  0  0  0
 16 50  2  0  0  0  0
 17 19  1  0  0  0  0
 17 61  1  0  0  0  0
 17 62  1  0  0  0  0
 17 63  1  0  0  0  0
 18 20  1  0  0  0  0
 18 64  1  0  0  0  0
 18 65  1  0  0  0  0
 18 66  1  0  0  0  0
 19 21  1  0  0  0  0
 19 67  1  0  0  0  0
 19 68  1  0  0  0  0
 20 22  1  0  0  0  0
 20 69  1  0  0  0  0
 20 70  1  0  0  0  0
 21 27  1  0  0  0  0
 21 71  1  0  0  0  0
 21 72  1  0  0  0  0
 22 28  1  0  0  0  0
 22 73  1  0  0  0  0
 22 74  1  0  0  0  0
 23 25  1  0  0  0  0
 23 29  1  0  0  0  0
 23 75  1  0  0  0  0
 23 76  1  0  0  0  0
 24 26  1  0  0  0  0
 24 30  1  0  0  0  0
 24 77  1  0  0  0  0
 24 78  1  0  0  0  0
 25 31  1  0  0  0  0
 25 79  1  0  0  0  0
 25 80  1  0  0  0  0
 26 32  1  0  0  0  0
 26 81  1  0  0  0  0
 26 82  1  0  0  0  0
 27 35  1  0  0  0  0
 27 83  1  0  0  0  0
 27 84  1  0  0  0  0
 28 36  1  0  0  0  0
 28 85  1  0  0  0  0
 28 86  1  0  0  0  0
 29 37  1  0  0  0  0
 29 87  1  0  0  0  0
 29 88  1  0  0  0  0
 30 38  1  0  0  0  0
 30 89  1  0  0  0  0
 30 90  1  0  0  0  0
 31 39  1  0  0  0  0
 31 91  1  0  0  0  0
 31 92  1  0  0  0  0
 32 40  1  0  0  0  0
 32 93  1  0  0  0  0
 32 94  1  0  0  0  0
 33 35  1  0  0  0  0
 33 45  1  0  0  0  0
 33 95  1  0  0  0  0
 33 96  1  0  0  0  0
 34 36  1  0  0  0  0
 34 46  1  0  0  0  0
 34 97  1  0  0  0  0
 34 98  1  0  0  0  0
 35 99  1  1  0  0  0
 36100  1  6  0  0  0
 37 43  1  0  0  0  0
 37101  1  1  0  0  0
 38 44  1  0  0  0  0
 38102  1  6  0  0  0
 39103  1  0  0  0  0
 39104  1  0  0  0  0
 40105  1  0  0  0  0
 40106  1  0  0  0  0
 41107  1  0  0  0  0
 42108  1  0  0  0  0
 43109  1  0  0  0  0
 44110  1  0  0  0  0
 45 46  1  0  0  0  0
 45111  1  0  0  0  0
 46112  1  0  0  0  0
M  END
$$$$
DrugBank_564
 OpenBabel01151909533D

 25 24  0  0  0  0  0  0  0  0999 V2000
   -1.1294    1.0258   -0.9374 C   0  0  0  0  0  0  0  0  0  0  0  0
    1.1977    1.4599   -0.0726 C   0  0  0  0  0  0  0  0  0  0  0  0
   -3.6683    2.8662    3.4013 C   0  0  0  0  0  0  0  0  0  0  0  0
   -1.7412    3.1780    4.9952 C   0  0  0  0  0  0  0  0  0  0  0  0
   -0.1488    0.8091    0.2050 C   0  0  0  0  0  0  0  0  0  0  0  0
   -2.1893    2.6168    3.6543 C   0  0  0  0  0  0  0  0  0  0  0  0
   -1.5303   -0.9962    2.2692 O   0  0  0  0  0  0  0  0  0  0  0  0
   -0.6925    1.3515    1.3953 O   0  0  0  0  0  0  0  0  0  0  0  0
   -1.9400    1.2223    3.6253 O   0  0  0  0  0  0  0  0  0  0  0  0
   -3.1449    0.7883    1.4587 F   0  0  0  0  0  0  0  0  0  0  0  0
   -1.7930    0.4790    2.1969 P   0  0  0  0  0  0  0  0  0  0  0  0
   -1.2908    2.0917   -1.1254 H   0  0  0  0  0  0  0  0  0  0  0  0
   -0.7537    0.5614   -1.8554 H   0  0  0  0  0  0  0  0  0  0  0  0
   -2.0963    0.5577   -0.7215 H   0  0  0  0  0  0  0  0  0  0  0  0
    1.0918    2.5361   -0.2401 H   0  0  0  0  0  0  0  0  0  0  0  0
    1.6622    1.0120   -0.9576 H   0  0  0  0  0  0  0  0  0  0  0  0
    1.8912    1.3016    0.7606 H   0  0  0  0  0  0  0  0  0  0  0  0
   -4.2862    2.4224    4.1878 H   0  0  0  0  0  0  0  0  0  0  0  0
   -3.8720    3.9417    3.3612 H   0  0  0  0  0  0  0  0  0  0  0  0
   -3.9788    2.4516    2.4358 H   0  0  0  0  0  0  0  0  0  0  0  0
   -2.3131    2.7416    5.8197 H   0  0  0  0  0  0  0  0  0  0  0  0
   -1.8712    4.2653    5.0159 H   0  0  0  0  0  0  0  0  0  0  0  0
   -0.6764    2.9854    5.1669 H   0  0  0  0  0  0  0  0  0  0  0  0
   -0.0091   -0.2646    0.3679 H   0  0  0  0  0  0  0  0  0  0  0  0
   -1.5995    3.0721    2.8520 H   0  0  0  0  0  0  0  0  0  0  0  0
  1  5  1  0  0  0  0
  1 12  1  0  0  0  0
  1 13  1  0  0  0  0
  1 14  1  0  0  0  0
  2  5  1  0  0  0  0
  2 15  1  0  0  0  0
  2 16  1  0  0  0  0
  2 17  1  0  0  0  0
  3  6  1  0  0  0  0
  3 18  1  0  0  0  0
  3 19  1  0  0  0  0
  3 20  1  0  0  0  0
  4  6  1  0  0  0  0
  4 21  1  0  0  0  0
  4 22  1  0  0  0  0
  4 23  1  0  0  0  0
  5  8  1  0  0  0  0
  5 24  1  0  0  0  0
  6  9  1  0  0  0  0
  6 25  1  0  0  0  0
  7 11  2  0  0  0  0
  8 11  1  0  0  0  0
  9 11  1  0  0  0  0
 10 11  1  0  0  0  0
M  END
$$$$
DrugBank_573
 OpenBabel01151909533D

 53 54  0  0  1  0  0  0  0  0999 V2000
    5.5163   -0.2376    0.9735 C   0  0  0  0  0  0  0  0  0  0  0  0
    0.8931    0.6577   -1.0860 C   0  0  0  0  0  0  0  0  0  0  0  0
    6.4746   -0.7603   -0.0922 C   0  0  2  0  0  0  0  0  0  0  0  0
    1.9526    0.9673   -0.0330 C   0  0  2  0  0  0  0  0  0  0  0  0
    5.8585   -0.6738   -1.4902 C   0  0  1  0  0  0  0  0  0  0  0  0
    1.9040    2.4356    0.3953 C   0  0  1  0  0  0  0  0  0  0  0  0
    4.4280   -1.2282   -1.5170 C   0  0  2  0  0  0  0  0  0  0  0  0
    1.8358    3.3789   -0.8130 C   0  0  2  0  0  0  0  0  0  0  0  0
    0.7979    2.9264   -1.8456 C   0  0  1  0  0  0  0  0  0  0  0  0
    3.5790   -0.7022   -0.3548 C   0  0  1  0  0  0  0  0  0  0  0  0
    6.8584    0.4745   -4.1507 O   0  0  0  0  0  0  0  0  0  0  0  0
    4.3730    0.7850   -3.9203 O   0  0  0  0  0  0  0  0  0  0  0  0
    1.7961    3.8155    3.1304 O   0  0  0  0  0  0  0  0  0  0  0  0
    0.4821    5.1122    1.4220 O   0  0  0  0  0  0  0  0  0  0  0  0
    3.7646   -3.2341   -3.7400 O   0  0  0  0  0  0  0  0  0  0  0  0
    6.1924   -3.3798   -3.0989 O   0  0  0  0  0  0  0  0  0  0  0  0
    3.6756    5.6004   -0.3990 O   0  0  0  0  0  0  0  0  0  0  0  0
    5.0877    3.5751    0.0815 O   0  0  0  0  0  0  0  0  0  0  0  0
    0.9837    1.5522   -2.1954 O   0  0  0  0  0  0  0  0  0  0  0  0
    4.2467   -0.8867    0.8964 O   0  0  0  0  0  0  0  0  0  0  0  0
    6.7914   -2.1143    0.2217 O   0  0  0  0  0  0  0  0  0  0  0  0
   -0.5154    3.1874   -1.3612 O   0  0  0  0  0  0  0  0  0  0  0  0
    5.9287    2.6892   -3.4999 O   0  0  0  0  0  0  0  0  0  0  0  0
   -0.6863    3.6512    3.0723 O   0  0  0  0  0  0  0  0  0  0  0  0
    4.5615   -5.0730   -2.2647 O   0  0  0  0  0  0  0  0  0  0  0  0
    5.2196    4.7104   -2.1358 O   0  0  0  0  0  0  0  0  0  0  0  0
    3.2302    0.6590   -0.5850 O   0  0  0  0  0  0  0  0  0  0  0  0
    5.8504    0.6949   -1.8895 O   0  0  0  0  0  0  0  0  0  0  0  0
    0.7529    2.6224    1.2157 O   0  0  0  0  0  0  0  0  0  0  0  0
    4.4641   -2.6511   -1.4265 O   0  0  0  0  0  0  0  0  0  0  0  0
    3.1071    3.4240   -1.4578 O   0  0  0  0  0  0  0  0  0  0  0  0
    5.7231    1.0711   -3.4719 S   0  0  0  0  0  0  0  0  0  0  0  0
    0.6759    3.9112    2.2131 S   0  0  0  0  0  0  0  0  0  0  0  0
    4.7904   -3.5352   -2.7587 S   0  0  0  0  0  0  0  0  0  0  0  0
    4.2907    4.3626   -0.8407 S   0  0  0  0  0  0  0  0  0  0  0  0
    5.9339   -0.3534    1.9839 H   0  0  0  0  0  0  0  0  0  0  0  0
    5.3568    0.8395    0.8348 H   0  0  0  0  0  0  0  0  0  0  0  0
    0.9649   -0.3815   -1.4377 H   0  0  0  0  0  0  0  0  0  0  0  0
   -0.1082    0.7592   -0.6480 H   0  0  0  0  0  0  0  0  0  0  0  0
    7.4113   -0.1868   -0.0613 H   0  0  0  0  0  0  0  0  0  0  0  0
    1.8075    0.3182    0.8412 H   0  0  0  0  0  0  0  0  0  0  0  0
    6.4958   -1.2017   -2.2186 H   0  0  0  0  0  0  0  0  0  0  0  0
    2.7740    2.6746    1.0289 H   0  0  0  0  0  0  0  0  0  0  0  0
    3.9470   -0.9849   -2.4765 H   0  0  0  0  0  0  0  0  0  0  0  0
    1.6145    4.4040   -0.4793 H   0  0  0  0  0  0  0  0  0  0  0  0
    0.9150    3.5472   -2.7813 H   0  0  0  0  0  0  0  0  0  0  0  0
    2.6056   -1.2731   -0.3224 H   0  0  0  0  0  0  0  0  0  0  0  0
    7.4002   -2.4248   -0.4673 H   0  0  0  0  0  0  0  0  0  0  0  0
   -1.1271    2.8839   -2.0490 H   0  0  0  0  0  0  0  0  0  0  0  0
    6.8147    3.0123   -3.2139 H   0  0  0  0  0  0  0  0  0  0  0  0
   -1.5073    3.5217    2.5428 H   0  0  0  0  0  0  0  0  0  0  0  0
    5.0847   -5.3511   -1.4772 H   0  0  0  0  0  0  0  0  0  0  0  0
    4.7869    5.2468   -2.8403 H   0  0  0  0  0  0  0  0  0  0  0  0
  1  3  1  0  0  0  0
  1 20  1  0  0  0  0
  1 36  1  0  0  0  0
  1 37  1  0  0  0  0
  2  4  1  0  0  0  0
  2 19  1  0  0  0  0
  2 38  1  0  0  0  0
  2 39  1  0  0  0  0
  3  5  1  6  0  0  0
  3 21  1  0  0  0  0
  3 40  1  0  0  0  0
  4  6  1  1  0  0  0
  4 27  1  0  0  0  0
  4 41  1  0  0  0  0
  5  7  1  6  0  0  0
  5 28  1  0  0  0  0
  5 42  1  0  0  0  0
  6  8  1  6  0  0  0
  6 29  1  0  0  0  0
  6 43  1  0  0  0  0
  7 10  1  1  0  0  0
  7 30  1  0  0  0  0
  7 44  1  0  0  0  0
  8  9  1  6  0  0  0
  8 31  1  0  0  0  0
  8 45  1  0  0  0  0
  9 19  1  0  0  0  0
  9 22  1  0  0  0  0
  9 46  1  6  0  0  0
 10 20  1  0  0  0  0
 10 27  1  0  0  0  0
 10 47  1  1  0  0  0
 11 32  2  0  0  0  0
 12 32  2  0  0  0  0
 13 33  2  0  0  0  0
 14 33  2  0  0  0  0
 15 34  2  0  0  0  0
 16 34  2  0  0  0  0
 17 35  2  0  0  0  0
 18 35  2  0  0  0  0
 21 48  1  0  0  0  0
 22 49  1  0  0  0  0
 23 32  1  0  0  0  0
 23 50  1  0  0  0  0
 24 33  1  0  0  0  0
 24 51  1  0  0  0  0
 25 34  1  0  0  0  0
 25 52  1  0  0  0  0
 26 35  1  0  0  0  0
 26 53  1  0  0  0  0
 28 32  1  0  0  0  0
 29 33  1  0  0  0  0
 30 34  1  0  0  0  0
 31 35  1  0  0  0  0
M  END
$$$$
DrugBank_3291
 OpenBabel01151909533D

 17 16  0  0  1  0  0  0  0  0999 V2000
   -0.3806   -0.3390    1.5446 C   0  0  0  0  0  0  0  0  0  0  0  0
    0.2596    0.8396   -0.5744 C   0  0  0  0  0  0  0  0  0  0  0  0
   -0.7500   -0.0859    0.0937 C   0  0  2  0  0  0  0  0  0  0  0  0
   -2.0662    0.5555    0.1008 N   0  0  0  0  0  0  0  0  0  0  0  0
   -0.6979    0.3773    2.4861 O   0  0  0  0  0  0  0  0  0  0  0  0
    1.3642   -1.0457   -2.0270 O   0  0  0  0  0  0  0  0  0  0  0  0
    2.5248   -0.2968    0.0967 O   0  0  0  0  0  0  0  0  0  0  0  0
    0.3794   -1.4545    1.6967 O   0  0  0  0  0  0  0  0  0  0  0  0
    2.4139    1.2280   -1.8909 O   0  0  0  0  0  0  0  0  0  0  0  0
    1.7251   -0.0077   -1.0793 S   0  0  0  0  0  0  0  0  0  0  0  0
    0.5800    1.6504    0.0888 H   0  0  0  0  0  0  0  0  0  0  0  0
   -0.1520    1.2813   -1.4888 H   0  0  0  0  0  0  0  0  0  0  0  0
   -0.8390   -1.0370   -0.4423 H   0  0  0  0  0  0  0  0  0  0  0  0
   -2.7164    0.2755    0.8002 H   0  0  0  0  0  0  0  0  0  0  0  0
   -2.3300    1.0846   -0.6997 H   0  0  0  0  0  0  0  0  0  0  0  0
    0.5707   -1.9504    0.8725 H   0  0  0  0  0  0  0  0  0  0  0  0
    1.9465    1.5069   -2.7132 H   0  0  0  0  0  0  0  0  0  0  0  0
  1  3  1  0  0  0  0
  1  5  2  0  0  0  0
  1  8  1  0  0  0  0
  2  3  1  0  0  0  0
  2 10  1  0  0  0  0
  2 11  1  0  0  0  0
  2 12  1  0  0  0  0
  3  4  1  0  0  0  0
  3 13  1  6  0  0  0
  4 14  1  0  0  0  0
  4 15  1  0  0  0  0
  6 10  2  0  0  0  0
  7 10  2  0  0  0  0
  8 16  1  0  0  0  0
  9 10  1  0  0  0  0
  9 17  1  0  0  0  0
M  END
$$$$
DrugBank_3299
 OpenBabel01151909533D

 28 29  0  0  0  0  0  0  0  0999 V2000
    1.5395   -1.4603    0.6221 C   0  0  0  0  0  0  0  0  0  0  0  0
    2.1472   -2.5965    0.0141 C   0  0  0  0  0  0  0  0  0  0  0  0
    1.6431   -2.8257   -1.2503 C   0  0  0  0  0  0  0  0  0  0  0  0
    0.6064   -0.8710   -0.2050 C   0  0  0  0  0  0  0  0  0  0  0  0
    1.8347   -0.9577    1.9403 C   0  0  0  0  0  0  0  0  0  0  0  0
   -1.1378    0.7803   -0.9153 C   0  0  0  0  0  0  0  0  0  0  0  0
   -1.8400    2.0024   -0.3553 C   0  0  0  0  0  0  0  0  0  0  0  0
    3.1856   -3.5010    0.5984 C   0  0  0  0  0  0  0  0  0  0  0  0
    2.1027   -3.9308   -2.1478 C   0  0  0  0  0  0  0  0  0  0  0  0
    3.8381   -4.3740   -0.4908 C   0  0  0  0  0  0  0  0  0  0  0  0
    2.8302   -4.9641   -1.3863 N   0  0  0  0  0  0  0  0  0  0  0  0
   -0.1970    0.2228   -0.0263 N   0  0  0  0  0  0  0  0  0  0  0  0
    1.7588    0.2290    2.3020 O   0  0  0  0  0  0  0  0  0  0  0  0
   -1.4371    0.4039   -2.0369 O   0  0  0  0  0  0  0  0  0  0  0  0
   -1.6101    2.4541    0.7490 O   0  0  0  0  0  0  0  0  0  0  0  0
    2.2242   -1.9371    2.8097 O   0  0  0  0  0  0  0  0  0  0  0  0
   -2.7195    2.4812   -1.2484 O   0  0  0  0  0  0  0  0  0  0  0  0
    0.4663   -1.6874   -1.7062 S   0  0  0  0  0  0  0  0  0  0  0  0
    3.9606   -2.9171    1.1075 H   0  0  0  0  0  0  0  0  0  0  0  0
    2.7083   -4.1451    1.3474 H   0  0  0  0  0  0  0  0  0  0  0  0
    1.2520   -4.4030   -2.6516 H   0  0  0  0  0  0  0  0  0  0  0  0
    2.7605   -3.5262   -2.9261 H   0  0  0  0  0  0  0  0  0  0  0  0
    4.5500   -3.7820   -1.0800 H   0  0  0  0  0  0  0  0  0  0  0  0
    4.4134   -5.1762   -0.0159 H   0  0  0  0  0  0  0  0  0  0  0  0
    3.3001   -5.5887   -2.0426 H   0  0  0  0  0  0  0  0  0  0  0  0
   -0.1274    0.7323    0.8758 H   0  0  0  0  0  0  0  0  0  0  0  0
    2.4267   -1.6052    3.7104 H   0  0  0  0  0  0  0  0  0  0  0  0
   -3.1908    3.2747   -0.9161 H   0  0  0  0  0  0  0  0  0  0  0  0
  1  2  1  0  0  0  0
  1  4  2  0  0  0  0
  1  5  1  0  0  0  0
  2  3  2  0  0  0  0
  2  8  1  0  0  0  0
  3  9  1  0  0  0  0
  3 18  1  0  0  0  0
  4 12  1  0  0  0  0
  4 18  1  0  0  0  0
  5 13  2  0  0  0  0
  5 16  1  0  0  0  0
  6  7  1  0  0  0  0
  6 12  1  0  0  0  0
  6 14  2  0  0  0  0
  7 15  2  0  0  0  0
  7 17  1  0  0  0  0
  8 10  1  0  0  0  0
  8 19  1  0  0  0  0
  8 20  1  0  0  0  0
  9 11  1  0  0  0  0
  9 21  1  0  0  0  0
  9 22  1  0  0  0  0
 10 11  1  0  0  0  0
 10 23  1  0  0  0  0
 10 24  1  0  0  0  0
 11 25  1  0  0  0  0
 12 26  1  0  0  0  0
 16 27  1  0  0  0  0
 17 28  1  0  0  0  0
M  END
$$$$
DrugBank_5804
 OpenBabel01151909533D

 29 29  0  0  0  0  0  0  0  0999 V2000
    1.0281   -6.9888   -1.0423 C   0  0  0  0  0  0  0  0  0  0  0  0
    2.1944   -6.2298   -0.9469 C   0  0  0  0  0  0  0  0  0  0  0  0
   -0.1355   -6.4179   -1.5580 C   0  0  0  0  0  0  0  0  0  0  0  0
    2.1971   -4.8997   -1.3669 C   0  0  0  0  0  0  0  0  0  0  0  0
   -0.1327   -5.0878   -1.9781 C   0  0  0  0  0  0  0  0  0  0  0  0
    1.0336   -4.3286   -1.8826 C   0  0  0  0  0  0  0  0  0  0  0  0
    0.1816    0.3645    0.2621 C   0  0  0  0  0  0  0  0  0  0  0  0
   -0.8743    1.1794    0.3929 C   0  0  0  0  0  0  0  0  0  0  0  0
    0.5676   -0.3119   -1.0220 C   0  0  0  0  0  0  0  0  0  0  0  0
    0.6077   -1.8274   -0.8455 C   0  0  0  0  0  0  0  0  0  0  0  0
   -0.9383    1.2891    3.2318 O   0  0  0  0  0  0  0  0  0  0  0  0
   -1.2879   -4.5625   -2.4771 O   0  0  0  0  0  0  0  0  0  0  0  0
   -2.8516    2.2876    1.7994 O   0  0  0  0  0  0  0  0  0  0  0  0
   -0.6238    3.4279    1.7952 O   0  0  0  0  0  0  0  0  0  0  0  0
   -1.2674    1.9406    1.9141 P   0  0  0  0  0  0  0  0  0  0  0  0
    1.0759   -2.6407   -2.4007 S   0  0  0  0  0  0  0  0  0  0  0  0
    1.0259   -8.0242   -0.7153 H   0  0  0  0  0  0  0  0  0  0  0  0
    3.1002   -6.6746   -0.5455 H   0  0  0  0  0  0  0  0  0  0  0  0
   -1.0402   -7.0156   -1.6294 H   0  0  0  0  0  0  0  0  0  0  0  0
    3.1170   -4.3258   -1.2839 H   0  0  0  0  0  0  0  0  0  0  0  0
    0.8128    0.1792    1.1276 H   0  0  0  0  0  0  0  0  0  0  0  0
   -1.5054    1.3707   -0.4696 H   0  0  0  0  0  0  0  0  0  0  0  0
   -0.1336   -0.0422   -1.8217 H   0  0  0  0  0  0  0  0  0  0  0  0
    1.5546    0.0640   -1.3193 H   0  0  0  0  0  0  0  0  0  0  0  0
   -0.3728   -2.2087   -0.5406 H   0  0  0  0  0  0  0  0  0  0  0  0
    1.3334   -2.1126   -0.0762 H   0  0  0  0  0  0  0  0  0  0  0  0
   -1.1514   -3.6367   -2.7307 H   0  0  0  0  0  0  0  0  0  0  0  0
   -3.2610    2.8937    2.4534 H   0  0  0  0  0  0  0  0  0  0  0  0
   -0.8854    4.1076    2.4522 H   0  0  0  0  0  0  0  0  0  0  0  0
  1  2  2  0  0  0  0
  1  3  1  0  0  0  0
  1 17  1  0  0  0  0
  2  4  1  0  0  0  0
  2 18  1  0  0  0  0
  3  5  2  0  0  0  0
  3 19  1  0  0  0  0
  4  6  2  0  0  0  0
  4 20  1  0  0  0  0
  5  6  1  0  0  0  0
  5 12  1  0  0  0  0
  6 16  1  0  0  0  0
  7  8  2  0  0  0  0
  7  9  1  0  0  0  0
  7 21  1  0  0  0  0
  8 15  1  0  0  0  0
  8 22  1  0  0  0  0
  9 10  1  0  0  0  0
  9 23  1  0  0  0  0
  9 24  1  0  0  0  0
 10 16  1  0  0  0  0
 10 25  1  0  0  0  0
 10 26  1  0  0  0  0
 11 15  2  0  0  0  0
 12 27  1  0  0  0  0
 13 15  1  0  0  0  0
 13 28  1  0  0  0  0
 14 15  1  0  0  0  0
 14 29  1  0  0  0  0
M  END
$$$$
DrugBank_5808
 OpenBabel01151909533D

 29 29  0  0  0  0  0  0  0  0999 V2000
   -0.1342   -6.4193   -1.5623 C   0  0  0  0  0  0  0  0  0  0  0  0
    1.0293   -6.9903   -1.0468 C   0  0  0  0  0  0  0  0  0  0  0  0
    2.1971   -4.8996   -1.3670 C   0  0  0  0  0  0  0  0  0  0  0  0
   -0.1321   -5.0885   -1.9803 C   0  0  0  0  0  0  0  0  0  0  0  0
    2.1950   -6.2304   -0.9491 C   0  0  0  0  0  0  0  0  0  0  0  0
    1.0336   -4.3286   -1.8826 C   0  0  0  0  0  0  0  0  0  0  0  0
    0.1816    0.3645    0.2621 C   0  0  0  0  0  0  0  0  0  0  0  0
   -0.8743    1.1794    0.3929 C   0  0  0  0  0  0  0  0  0  0  0  0
    0.5676   -0.3119   -1.0220 C   0  0  0  0  0  0  0  0  0  0  0  0
    0.6077   -1.8274   -0.8455 C   0  0  0  0  0  0  0  0  0  0  0  0
   -0.9383    1.2891    3.2318 O   0  0  0  0  0  0  0  0  0  0  0  0
   -1.2865   -4.5640   -2.4823 O   0  0  0  0  0  0  0  0  0  0  0  0
   -2.8516    2.2876    1.7994 O   0  0  0  0  0  0  0  0  0  0  0  0
   -0.6238    3.4279    1.7952 O   0  0  0  0  0  0  0  0  0  0  0  0
    3.3122   -6.7792   -0.4542 F   0  0  0  0  0  0  0  0  0  0  0  0
   -1.2674    1.9406    1.9141 P   0  0  0  0  0  0  0  0  0  0  0  0
    1.0759   -2.6407   -2.4007 S   0  0  0  0  0  0  0  0  0  0  0  0
   -1.0384   -7.0180   -1.6358 H   0  0  0  0  0  0  0  0  0  0  0  0
    1.0281   -8.0263   -0.7213 H   0  0  0  0  0  0  0  0  0  0  0  0
    3.1162   -4.3254   -1.2816 H   0  0  0  0  0  0  0  0  0  0  0  0
    0.8128    0.1792    1.1276 H   0  0  0  0  0  0  0  0  0  0  0  0
   -1.5054    1.3707   -0.4696 H   0  0  0  0  0  0  0  0  0  0  0  0
   -0.1336   -0.0422   -1.8217 H   0  0  0  0  0  0  0  0  0  0  0  0
    1.5546    0.0640   -1.3193 H   0  0  0  0  0  0  0  0  0  0  0  0
   -0.3728   -2.2087   -0.5406 H   0  0  0  0  0  0  0  0  0  0  0  0
    1.3334   -2.1126   -0.0762 H   0  0  0  0  0  0  0  0  0  0  0  0
   -1.1504   -3.6376   -2.7339 H   0  0  0  0  0  0  0  0  0  0  0  0
   -3.2610    2.8937    2.4534 H   0  0  0  0  0  0  0  0  0  0  0  0
   -0.8854    4.1076    2.4522 H   0  0  0  0  0  0  0  0  0  0  0  0
  1  2  2  0  0  0  0
  1  4  1  0  0  0  0
  1 18  1  0  0  0  0
  2  5  1  0  0  0  0
  2 19  1  0  0  0  0
  3  5  2  0  0  0  0
  3  6  1  0  0  0  0
  3 20  1  0  0  0  0
  4  6  2  0  0  0  0
  4 12  1  0  0  0  0
  5 15  1  0  0  0  0
  6 17  1  0  0  0  0
  7  8  2  0  0  0  0
  7  9  1  0  0  0  0
  7 21  1  0  0  0  0
  8 16  1  0  0  0  0
  8 22  1  0  0  0  0
  9 10  1  0  0  0  0
  9 23  1  0  0  0  0
  9 24  1  0  0  0  0
 10 17  1  0  0  0  0
 10 25  1  0  0  0  0
 10 26  1  0  0  0  0
 11 16  2  0  0  0  0
 12 27  1  0  0  0  0
 13 16  1  0  0  0  0
 13 28  1  0  0  0  0
 14 16  1  0  0  0  0
 14 29  1  0  0  0  0
M  END
$$$$
DrugBank_3317
 OpenBabel01151909533D

 65 64  0  0  1  0  0  0  0  0999 V2000
   11.5780   13.5012   -9.4578 C   0  0  0  0  0  0  0  0  0  0  0  0
   -6.2035   -2.3966   -9.8487 C   0  0  0  0  0  0  0  0  0  0  0  0
   -4.7221   -2.0552   -9.9082 C   0  0  0  0  0  0  0  0  0  0  0  0
   -4.4630   -0.6189   -9.4513 C   0  0  0  0  0  0  0  0  0  0  0  0
   -2.9772   -0.2455   -9.4202 C   0  0  0  0  0  0  0  0  0  0  0  0
   -2.7242    1.2019   -8.9902 C   0  0  0  0  0  0  0  0  0  0  0  0
   -1.2440    1.5968   -9.0278 C   0  0  0  0  0  0  0  0  0  0  0  0
   -0.9845    3.0371   -8.5778 C   0  0  0  0  0  0  0  0  0  0  0  0
    0.5057    3.3791   -8.6577 C   0  0  0  0  0  0  0  0  0  0  0  0
    0.8267    4.8138   -8.2272 C   0  0  0  0  0  0  0  0  0  0  0  0
    2.3109    5.1953   -8.2344 C   0  0  0  0  0  0  0  0  0  0  0  0
    2.5606    6.6636   -7.8813 C   0  0  0  0  0  0  0  0  0  0  0  0
    4.0405    7.0577   -7.9458 C   0  0  0  0  0  0  0  0  0  0  0  0
    4.2918    8.5198   -7.5673 C   0  0  0  0  0  0  0  0  0  0  0  0
    5.7632    8.9314   -7.6887 C   0  0  0  0  0  0  0  0  0  0  0  0
    6.0034   10.4134   -7.3849 C   0  0  0  0  0  0  0  0  0  0  0  0
   10.0373   13.7806   -7.5149 C   0  0  0  0  0  0  0  0  0  0  0  0
    7.4691   10.8108   -7.5024 C   0  0  0  0  0  0  0  0  0  0  0  0
   11.4781   13.5525   -7.9475 C   0  0  2  0  0  0  0  0  0  0  0  0
   12.3441   14.6138   -7.4954 N   0  0  0  0  0  0  0  0  0  0  0  0
   12.1933   14.3008  -10.1511 O   0  0  0  0  0  0  0  0  0  0  0  0
    6.9840   13.2982   -8.1566 O   0  0  0  0  0  0  0  0  0  0  0  0
    7.6175   12.7603   -5.7622 O   0  0  0  0  0  0  0  0  0  0  0  0
   10.8546   12.4760   -9.9795 O   0  0  0  0  0  0  0  0  0  0  0  0
    9.3250   12.5560   -7.6015 O   0  0  0  0  0  0  0  0  0  0  0  0
    7.7430   12.5251   -7.1897 S   0  0  0  0  0  0  0  0  0  0  0  0
   -6.5953   -2.2669   -8.8348 H   0  0  0  0  0  0  0  0  0  0  0  0
   -6.3807   -3.4322  -10.1565 H   0  0  0  0  0  0  0  0  0  0  0  0
   -6.7702   -1.7422  -10.5185 H   0  0  0  0  0  0  0  0  0  0  0  0
   -4.3726   -2.1981  -10.9360 H   0  0  0  0  0  0  0  0  0  0  0  0
   -4.1665   -2.7549   -9.2732 H   0  0  0  0  0  0  0  0  0  0  0  0
   -5.0049    0.0805  -10.0995 H   0  0  0  0  0  0  0  0  0  0  0  0
   -4.8676   -0.4886   -8.4397 H   0  0  0  0  0  0  0  0  0  0  0  0
   -2.4805   -0.9275   -8.7211 H   0  0  0  0  0  0  0  0  0  0  0  0
   -2.5325   -0.4231  -10.4067 H   0  0  0  0  0  0  0  0  0  0  0  0
   -3.1230    1.3651   -7.9817 H   0  0  0  0  0  0  0  0  0  0  0  0
   -3.2639    1.8820   -9.6585 H   0  0  0  0  0  0  0  0  0  0  0  0
   -0.8860    1.4762  -10.0580 H   0  0  0  0  0  0  0  0  0  0  0  0
   -0.6623    0.9033   -8.4083 H   0  0  0  0  0  0  0  0  0  0  0  0
   -1.3285    3.1777   -7.5475 H   0  0  0  0  0  0  0  0  0  0  0  0
   -1.5603    3.7194   -9.2130 H   0  0  0  0  0  0  0  0  0  0  0  0
    1.0650    2.6968   -8.0049 H   0  0  0  0  0  0  0  0  0  0  0  0
    0.8745    3.2013   -9.6744 H   0  0  0  0  0  0  0  0  0  0  0  0
    0.2879    5.5095   -8.8825 H   0  0  0  0  0  0  0  0  0  0  0  0
    0.4254    4.9699   -7.2180 H   0  0  0  0  0  0  0  0  0  0  0  0
    2.8603    4.5406   -7.5498 H   0  0  0  0  0  0  0  0  0  0  0  0
    2.7074    4.9951   -9.2378 H   0  0  0  0  0  0  0  0  0  0  0  0
    2.1763    6.8825   -6.8785 H   0  0  0  0  0  0  0  0  0  0  0  0
    2.0056    7.3006   -8.5808 H   0  0  0  0  0  0  0  0  0  0  0  0
    4.3960    6.8846   -8.9690 H   0  0  0  0  0  0  0  0  0  0  0  0
    4.6172    6.3935   -7.2922 H   0  0  0  0  0  0  0  0  0  0  0  0
    3.9503    8.7091   -6.5433 H   0  0  0  0  0  0  0  0  0  0  0  0
    3.7001    9.1687   -8.2249 H   0  0  0  0  0  0  0  0  0  0  0  0
    6.3674    8.3052   -7.0224 H   0  0  0  0  0  0  0  0  0  0  0  0
    6.0944    8.7161   -8.7122 H   0  0  0  0  0  0  0  0  0  0  0  0
    5.4249   11.0192   -8.0930 H   0  0  0  0  0  0  0  0  0  0  0  0
    5.6397   10.6554   -6.3801 H   0  0  0  0  0  0  0  0  0  0  0  0
    9.5403   14.5046   -8.1692 H   0  0  0  0  0  0  0  0  0  0  0  0
    9.9791   14.1485   -6.4844 H   0  0  0  0  0  0  0  0  0  0  0  0
    8.0999   10.2459   -6.8100 H   0  0  0  0  0  0  0  0  0  0  0  0
    7.8252   10.6281   -8.5211 H   0  0  0  0  0  0  0  0  0  0  0  0
   11.8920   12.6361   -7.5134 H   0  0  0  0  0  0  0  0  0  0  0  0
   13.1954   14.7954   -7.9987 H   0  0  0  0  0  0  0  0  0  0  0  0
   12.1917   15.0119   -6.5847 H   0  0  0  0  0  0  0  0  0  0  0  0
   10.4063   11.9032   -9.3211 H   0  0  0  0  0  0  0  0  0  0  0  0
  1 19  1  0  0  0  0
  1 21  2  0  0  0  0
  1 24  1  0  0  0  0
  2  3  1  0  0  0  0
  2 27  1  0  0  0  0
  2 28  1  0  0  0  0
  2 29  1  0  0  0  0
  3  4  1  0  0  0  0
  3 30  1  0  0  0  0
  3 31  1  0  0  0  0
  4  5  1  0  0  0  0
  4 32  1  0  0  0  0
  4 33  1  0  0  0  0
  5  6  1  0  0  0  0
  5 34  1  0  0  0  0
  5 35  1  0  0  0  0
  6  7  1  0  0  0  0
  6 36  1  0  0  0  0
  6 37  1  0  0  0  0
  7  8  1  0  0  0  0
  7 38  1  0  0  0  0
  7 39  1  0  0  0  0
  8  9  1  0  0  0  0
  8 40  1  0  0  0  0
  8 41  1  0  0  0  0
  9 10  1  0  0  0  0
  9 42  1  0  0  0  0
  9 43  1  0  0  0  0
 10 11  1  0  0  0  0
 10 44  1  0  0  0  0
 10 45  1  0  0  0  0
 11 12  1  0  0  0  0
 11 46  1  0  0  0  0
 11 47  1  0  0  0  0
 12 13  1  0  0  0  0
 12 48  1  0  0  0  0
 12 49  1  0  0  0  0
 13 14  1  0  0  0  0
 13 50  1  0  0  0  0
 13 51  1  0  0  0  0
 14 15  1  0  0  0  0
 14 52  1  0  0  0  0
 14 53  1  0  0  0  0
 15 16  1  0  0  0  0
 15 54  1  0  0  0  0
 15 55  1  0  0  0  0
 16 18  1  0  0  0  0
 16 56  1  0  0  0  0
 16 57  1  0  0  0  0
 17 19  1  0  0  0  0
 17 25  1  0  0  0  0
 17 58  1  0  0  0  0
 17 59  1  0  0  0  0
 18 26  1  0  0  0  0
 18 60  1  0  0  0  0
 18 61  1  0  0  0  0
 19 20  1  0  0  0  0
 19 62  1  1  0  0  0
 20 63  1  0  0  0  0
 20 64  1  0  0  0  0
 22 26  2  0  0  0  0
 23 26  2  0  0  0  0
 24 65  1  0  0  0  0
 25 26  1  0  0  0  0
M  END
$$$$
DrugBank_3332
 OpenBabel01151909533D

 41 43  0  0  1  0  0  0  0  0999 V2000
    1.1183   -0.5184    5.1349 C   0  0  0  0  0  0  0  0  0  0  0  0
   -2.1322   -0.1230    2.2690 C   0  0  0  0  0  0  0  0  0  0  0  0
   -1.2345   -0.9935    3.9951 C   0  0  0  0  0  0  0  0  0  0  0  0
   -0.3236   -0.0630    3.5209 C   0  0  0  0  0  0  0  0  0  0  0  0
   -0.8714   -1.7051    5.1342 C   0  0  0  0  0  0  0  0  0  0  0  0
    0.1385    2.0525   -0.6912 C   0  0  2  0  0  0  0  0  0  0  0  0
    0.3852    0.9698    0.3367 C   0  0  2  0  0  0  0  0  0  0  0  0
   -1.2921    2.4556   -0.3738 C   0  0  2  0  0  0  0  0  0  0  0  0
   -0.3571    1.5191    1.5483 C   0  0  2  0  0  0  0  0  0  0  0  0
   -1.6307    3.8699   -0.8096 C   0  0  0  0  0  0  0  0  0  0  0  0
    0.8782    0.2328    4.0381 N   0  0  0  0  0  0  0  0  0  0  0  0
    0.3297   -1.4580    5.7103 N   0  0  0  0  0  0  0  0  0  0  0  0
   -2.3567   -1.0206    3.2058 N   0  0  0  0  0  0  0  0  0  0  0  0
   -0.9134    0.4840    2.4171 N   0  0  0  0  0  0  0  0  0  0  0  0
   -1.7341   -2.6687    5.6840 N   0  0  0  0  0  0  0  0  0  0  0  0
   -1.5239    5.4566   -4.4105 O   0  0  0  0  0  0  0  0  0  0  0  0
    0.7492    7.4834   -3.6483 O   0  0  0  0  0  0  0  0  0  0  0  0
    1.2899    5.2381   -2.6378 O   0  0  0  0  0  0  0  0  0  0  0  0
   -1.4267    2.3479    1.0536 O   0  0  0  0  0  0  0  0  0  0  0  0
    0.2665    1.5431   -2.0049 O   0  0  0  0  0  0  0  0  0  0  0  0
    1.7661    0.8230    0.6176 O   0  0  0  0  0  0  0  0  0  0  0  0
   -3.2489    5.7518   -2.4606 O   0  0  0  0  0  0  0  0  0  0  0  0
    1.4138    7.3026   -1.2596 O   0  0  0  0  0  0  0  0  0  0  0  0
   -1.4417    3.9749   -2.2113 O   0  0  0  0  0  0  0  0  0  0  0  0
   -0.8406    6.4053   -2.0312 O   0  0  0  0  0  0  0  0  0  0  0  0
   -1.7388    5.3960   -2.9255 P   0  0  1  0  0  0  0  0  0  0  0  0
    0.7068    6.5621   -2.5285 S   0  0  0  0  0  0  0  0  0  0  0  0
    2.0720   -0.3463    5.6224 H   0  0  0  0  0  0  0  0  0  0  0  0
   -2.8087    0.1287    1.4637 H   0  0  0  0  0  0  0  0  0  0  0  0
    0.8479    2.8789   -0.5638 H   0  0  0  0  0  0  0  0  0  0  0  0
   -0.0037    0.0013    0.0010 H   0  0  0  0  0  0  0  0  0  0  0  0
   -2.0060    1.7611   -0.8327 H   0  0  0  0  0  0  0  0  0  0  0  0
    0.2955    2.1397    2.1996 H   0  0  0  0  0  0  0  0  0  0  0  0
   -0.9777    4.5880   -0.3081 H   0  0  0  0  0  0  0  0  0  0  0  0
   -2.6720    4.1010   -0.5730 H   0  0  0  0  0  0  0  0  0  0  0  0
   -2.6392   -2.8096    5.2767 H   0  0  0  0  0  0  0  0  0  0  0  0
   -1.4740   -3.1365    6.5315 H   0  0  0  0  0  0  0  0  0  0  0  0
    0.0978    2.2810   -2.6159 H   0  0  0  0  0  0  0  0  0  0  0  0
    1.8486    0.1163    1.2803 H   0  0  0  0  0  0  0  0  0  0  0  0
   -3.9894    5.1996   -2.7906 H   0  0  0  0  0  0  0  0  0  0  0  0
    1.2981    6.8522   -0.3902 H   0  0  0  0  0  0  0  0  0  0  0  0
  1 11  2  0  0  0  0
  1 12  1  0  0  0  0
  1 28  1  0  0  0  0
  2 13  2  0  0  0  0
  2 14  1  0  0  0  0
  2 29  1  0  0  0  0
  3  4  2  0  0  0  0
  3  5  1  0  0  0  0
  3 13  1  0  0  0  0
  4 11  1  0  0  0  0
  4 14  1  0  0  0  0
  5 12  2  0  0  0  0
  5 15  1  0  0  0  0
  6  7  1  1  0  0  0
  6 20  1  0  0  0  0
  6 30  1  0  0  0  0
  7  9  1  1  0  0  0
  7 21  1  0  0  0  0
  7 31  1  0  0  0  0
  8  6  1  6  0  0  0
  8 10  1  0  0  0  0
  8 19  1  0  0  0  0
  8 32  1  0  0  0  0
  9 14  1  0  0  0  0
  9 19  1  0  0  0  0
  9 33  1  1  0  0  0
 10 24  1  0  0  0  0
 10 34  1  0  0  0  0
 10 35  1  0  0  0  0
 15 36  1  0  0  0  0
 15 37  1  0  0  0  0
 17 27  2  0  0  0  0
 18 27  2  0  0  0  0
 20 38  1  0  0  0  0
 21 39  1  0  0  0  0
 22 26  1  0  0  0  0
 22 40  1  0  0  0  0
 23 27  1  0  0  0  0
 23 41  1  0  0  0  0
 24 26  1  0  0  0  0
 25 26  1  0  0  0  0
 25 27  1  0  0  0  0
 26 16  2  6  0  0  0
M  END
$$$$
DrugBank_3346
 OpenBabel01151909533D

 20 20  0  0  1  0  0  0  0  0999 V2000
    3.2368   -1.5285    4.2523 C   0  0  0  0  0  0  0  0  0  0  0  0
    2.6956   -2.5390    3.4854 C   0  0  0  0  0  0  0  0  0  0  0  0
    2.5953   -0.3293    2.5318 C   0  0  0  0  0  0  0  0  0  0  0  0
    1.0827    3.0998    1.4012 C   0  0  0  0  0  0  0  0  0  0  0  0
    2.3483    0.8659    1.6215 C   0  0  1  0  0  0  0  0  0  0  0  0
    1.4225    1.9085    2.2945 C   0  0  2  0  0  0  0  0  0  0  0  0
    3.1805   -0.2608    3.7069 N   0  0  0  0  0  0  0  0  0  0  0  0
    3.6232    1.4608    1.2054 N   0  0  0  0  0  0  0  0  0  0  0  0
    0.1865    1.2771    2.6462 O   0  0  0  0  0  0  0  0  0  0  0  0
    2.0870   -1.8866    2.0207 S   0  0  0  0  0  0  0  0  0  0  0  0
    3.6886   -1.6637    5.2258 H   0  0  0  0  0  0  0  0  0  0  0  0
    2.6289   -3.5942    3.7095 H   0  0  0  0  0  0  0  0  0  0  0  0
    0.6373    2.7856    0.4531 H   0  0  0  0  0  0  0  0  0  0  0  0
    1.9755    3.6986    1.1901 H   0  0  0  0  0  0  0  0  0  0  0  0
    0.3725    3.7637    1.9068 H   0  0  0  0  0  0  0  0  0  0  0  0
    1.8456    0.5033    0.7149 H   0  0  0  0  0  0  0  0  0  0  0  0
    1.8631    2.2857    3.2245 H   0  0  0  0  0  0  0  0  0  0  0  0
    3.6115    2.4010    0.8836 H   0  0  0  0  0  0  0  0  0  0  0  0
    4.3955    0.8503    1.0691 H   0  0  0  0  0  0  0  0  0  0  0  0
   -0.3345    1.9459    3.1133 H   0  0  0  0  0  0  0  0  0  0  0  0
  1  2  2  0  0  0  0
  1  7  1  0  0  0  0
  1 11  1  0  0  0  0
  2 10  1  0  0  0  0
  2 12  1  0  0  0  0
  3  5  1  0  0  0  0
  3  7  2  0  0  0  0
  3 10  1  0  0  0  0
  4  6  1  0  0  0  0
  4 13  1  0  0  0  0
  4 14  1  0  0  0  0
  4 15  1  0  0  0  0
  5  6  1  0  0  0  0
  5  8  1  0  0  0  0
  5 16  1  6  0  0  0
  6  9  1  0  0  0  0
  6 17  1  1  0  0  0
  8 18  1  0  0  0  0
  8 19  1  0  0  0  0
  9 20  1  0  0  0  0
M  END
$$$$
DrugBank_3353
 OpenBabel01151909533D

  8  7  0  0  0  0  0  0  0  0999 V2000
    0.4803    0.4213    0.4301 C   0  0  0  0  0  0  0  0  0  0  0  0
   -0.5454   -0.5059   -0.1994 C   0  0  0  0  0  0  0  0  0  0  0  0
    1.9125    0.6263   -0.6070 Cl  0  0  0  0  0  0  0  0  0  0  0  0
   -1.1473    0.1277   -1.7502 Cl  0  0  0  0  0  0  0  0  0  0  0  0
    0.0600    1.4124    0.6275 H   0  0  0  0  0  0  0  0  0  0  0  0
    0.8293    0.0039    1.3793 H   0  0  0  0  0  0  0  0  0  0  0  0
   -1.4110   -0.6105    0.4615 H   0  0  0  0  0  0  0  0  0  0  0  0
   -0.1309   -1.5028   -0.3786 H   0  0  0  0  0  0  0  0  0  0  0  0
  1  2  1  0  0  0  0
  1  3  1  0  0  0  0
  1  5  1  0  0  0  0
  1  6  1  0  0  0  0
  2  4  1  0  0  0  0
  2  7  1  0  0  0  0
  2  8  1  0  0  0  0
M  END
$$$$
DrugBank_5847
 OpenBabel01151909533D

 68 70  0  0  1  0  0  0  0  0999 V2000
    1.9293    2.7093    4.4600 C   0  0  0  0  0  0  0  0  0  0  0  0
    2.8697    0.5084    4.1862 C   0  0  0  0  0  0  0  0  0  0  0  0
    1.4836    2.3289    5.7178 C   0  0  0  0  0  0  0  0  0  0  0  0
    2.4003    0.1837    5.4510 C   0  0  0  0  0  0  0  0  0  0  0  0
    2.6294    1.7859    3.6895 C   0  0  0  0  0  0  0  0  0  0  0  0
    5.5050    3.8161   -0.9256 C   0  0  0  0  0  0  0  0  0  0  0  0
    6.1729    1.2392    1.1712 C   0  0  0  0  0  0  0  0  0  0  0  0
    9.1558   -5.2982    0.0920 C   0  0  0  0  0  0  0  0  0  0  0  0
    9.4968   -3.8172    0.2301 C   0  0  0  0  0  0  0  0  0  0  0  0
    7.6730   -5.5089   -0.2009 C   0  0  0  0  0  0  0  0  0  0  0  0
    7.9985    7.1893   -0.5721 C   0  0  0  0  0  0  0  0  0  0  0  0
    7.9774    6.2636   -1.7874 C   0  0  0  0  0  0  0  0  0  0  0  0
    7.3727    6.5082    0.6442 C   0  0  0  0  0  0  0  0  0  0  0  0
    8.6167   -3.1317    1.2718 C   0  0  0  0  0  0  0  0  0  0  0  0
    6.7910   -4.8254    0.8406 C   0  0  0  0  0  0  0  0  0  0  0  0
    6.5694    5.7410   -2.0589 C   0  0  0  0  0  0  0  0  0  0  0  0
    5.9756    5.9795    0.3269 C   0  0  0  0  0  0  0  0  0  0  0  0
    7.1313   -3.3414    0.9774 C   0  0  0  0  0  0  0  0  0  0  0  0
    6.3445   -0.2259    0.8607 C   0  0  0  0  0  0  0  0  0  0  0  0
    3.4355    3.4769    0.4129 C   0  0  0  0  0  0  0  0  0  0  0  0
    2.8782    3.4368    1.8352 C   0  0  0  0  0  0  0  0  0  0  0  0
    4.9407    3.2447    0.3506 C   0  0  1  0  0  0  0  0  0  0  0  0
    1.7288    1.0921    6.1717 N   0  0  0  0  0  0  0  0  0  0  0  0
    6.0024    5.1173   -0.8614 N   0  0  0  0  0  0  0  0  0  0  0  0
    3.0846    2.1375    2.4283 N   0  0  0  0  0  0  0  0  0  0  0  0
    5.2904    1.8559    0.2858 N   0  0  0  0  0  0  0  0  0  0  0  0
    6.6332   -0.9622    2.1000 N   0  0  0  0  0  0  0  0  0  0  0  0
    5.5049    3.1246   -1.9474 O   0  0  0  0  0  0  0  0  0  0  0  0
    6.7466    1.8053    2.0979 O   0  0  0  0  0  0  0  0  0  0  0  0
    4.7480   -2.7166    1.8460 O   0  0  0  0  0  0  0  0  0  0  0  0
    6.5967   -3.1074    3.5151 O   0  0  0  0  0  0  0  0  0  0  0  0
    6.1377   -2.5919    2.2396 S   0  0  0  0  0  0  0  0  0  0  0  0
    1.7292    3.7113    4.0933 H   0  0  0  0  0  0  0  0  0  0  0  0
    3.4122   -0.2291    3.6028 H   0  0  0  0  0  0  0  0  0  0  0  0
    0.9316    2.9779    6.3832 H   0  0  0  0  0  0  0  0  0  0  0  0
    2.5406   -0.7822    5.9166 H   0  0  0  0  0  0  0  0  0  0  0  0
    9.7526   -5.7349   -0.7173 H   0  0  0  0  0  0  0  0  0  0  0  0
    9.4287   -5.8265    1.0117 H   0  0  0  0  0  0  0  0  0  0  0  0
   10.5529   -3.7087    0.5016 H   0  0  0  0  0  0  0  0  0  0  0  0
    9.3694   -3.3215   -0.7388 H   0  0  0  0  0  0  0  0  0  0  0  0
    7.4385   -5.1139   -1.1955 H   0  0  0  0  0  0  0  0  0  0  0  0
    7.4545   -6.5822   -0.2297 H   0  0  0  0  0  0  0  0  0  0  0  0
    9.0294    7.4824   -0.3452 H   0  0  0  0  0  0  0  0  0  0  0  0
    7.4454    8.1083   -0.8019 H   0  0  0  0  0  0  0  0  0  0  0  0
    8.3543    6.7959   -2.6676 H   0  0  0  0  0  0  0  0  0  0  0  0
    8.6509    5.4170   -1.6052 H   0  0  0  0  0  0  0  0  0  0  0  0
    8.0137    5.6749    0.9583 H   0  0  0  0  0  0  0  0  0  0  0  0
    7.3231    7.2139    1.4805 H   0  0  0  0  0  0  0  0  0  0  0  0
    8.8696   -3.5028    2.2646 H   0  0  0  0  0  0  0  0  0  0  0  0
    8.8292   -2.0612    1.2566 H   0  0  0  0  0  0  0  0  0  0  0  0
    5.7493   -4.9187    0.5287 H   0  0  0  0  0  0  0  0  0  0  0  0
    6.8941   -5.3354    1.7978 H   0  0  0  0  0  0  0  0  0  0  0  0
    5.9035    6.5638   -2.3451 H   0  0  0  0  0  0  0  0  0  0  0  0
    6.5929    5.0342   -2.8943 H   0  0  0  0  0  0  0  0  0  0  0  0
    5.5793    5.4602    1.2011 H   0  0  0  0  0  0  0  0  0  0  0  0
    5.2949    6.8105    0.1069 H   0  0  0  0  0  0  0  0  0  0  0  0
    6.8630   -2.8215    0.0702 H   0  0  0  0  0  0  0  0  0  0  0  0
    5.4258   -0.6180    0.4144 H   0  0  0  0  0  0  0  0  0  0  0  0
    7.1740   -0.3619    0.1606 H   0  0  0  0  0  0  0  0  0  0  0  0
    2.9228    2.7239   -0.2002 H   0  0  0  0  0  0  0  0  0  0  0  0
    3.1899    4.4526   -0.0273 H   0  0  0  0  0  0  0  0  0  0  0  0
    3.3401    4.2059    2.4623 H   0  0  0  0  0  0  0  0  0  0  0  0
    1.8028    3.6422    1.8084 H   0  0  0  0  0  0  0  0  0  0  0  0
    5.4726    3.7015    1.1849 H   0  0  0  0  0  0  0  0  0  0  0  0
    1.3920    0.8327    7.0985 H   0  0  0  0  0  0  0  0  0  0  0  0
    3.5905    1.4417    1.8911 H   0  0  0  0  0  0  0  0  0  0  0  0
    4.8693    1.2865   -0.4501 H   0  0  0  0  0  0  0  0  0  0  0  0
    7.5316   -0.7138    2.5378 H   0  0  0  0  0  0  0  0  0  0  0  0
  1  3  1  0  0  0  0
  1  5  2  0  0  0  0
  1 33  1  0  0  0  0
  2  4  2  0  0  0  0
  2  5  1  0  0  0  0
  2 34  1  0  0  0  0
  3 23  1  0  0  0  0
  3 35  1  0  0  0  0
  4 23  1  0  0  0  0
  4 36  1  0  0  0  0
  5 25  1  0  0  0  0
  6 22  1  0  0  0  0
  6 24  1  0  0  0  0
  6 28  2  0  0  0  0
  7 19  1  0  0  0  0
  7 26  1  0  0  0  0
  7 29  2  0  0  0  0
  8  9  1  0  0  0  0
  8 10  1  0  0  0  0
  8 37  1  0  0  0  0
  8 38  1  0  0  0  0
  9 14  1  0  0  0  0
  9 39  1  0  0  0  0
  9 40  1  0  0  0  0
 10 15  1  0  0  0  0
 10 41  1  0  0  0  0
 10 42  1  0  0  0  0
 11 12  1  0  0  0  0
 11 13  1  0  0  0  0
 11 43  1  0  0  0  0
 11 44  1  0  0  0  0
 12 16  1  0  0  0  0
 12 45  1  0  0  0  0
 12 46  1  0  0  0  0
 13 17  1  0  0  0  0
 13 47  1  0  0  0  0
 13 48  1  0  0  0  0
 14 18  1  0  0  0  0
 14 49  1  0  0  0  0
 14 50  1  0  0  0  0
 15 18  1  0  0  0  0
 15 51  1  0  0  0  0
 15 52  1  0  0  0  0
 16 24  1  0  0  0  0
 16 53  1  0  0  0  0
 16 54  1  0  0  0  0
 17 24  1  0  0  0  0
 17 55  1  0  0  0  0
 17 56  1  0  0  0  0
 18 32  1  0  0  0  0
 18 57  1  0  0  0  0
 19 27  1  0  0  0  0
 19 58  1  0  0  0  0
 19 59  1  0  0  0  0
 20 21  1  0  0  0  0
 20 22  1  0  0  0  0
 20 60  1  0  0  0  0
 20 61  1  0  0  0  0
 21 25  1  0  0  0  0
 21 62  1  0  0  0  0
 21 63  1  0  0  0  0
 22 26  1  0  0  0  0
 22 64  1  1  0  0  0
 23 65  1  0  0  0  0
 25 66  1  0  0  0  0
 26 67  1  0  0  0  0
 27 32  1  0  0  0  0
 27 68  1  0  0  0  0
 30 32  2  0  0  0  0
 31 32  2  0  0  0  0
M  END
$$$$
DrugBank_3358
 OpenBabel01151909533D

 38 37  0  0  1  0  0  0  0  0999 V2000
    8.9278    3.5327   -2.2662 C   0  0  0  0  0  0  0  0  0  0  0  0
   10.2430    3.6378   -2.0499 C   0  0  0  0  0  0  0  0  0  0  0  0
    6.6372    4.1568   -1.7592 C   0  0  0  0  0  0  0  0  0  0  0  0
    3.4117    3.2916    0.5091 C   0  0  0  0  0  0  0  0  0  0  0  0
    3.3635   -0.6019    0.9318 C   0  0  0  0  0  0  0  0  0  0  0  0
    4.6178    1.0822    2.2711 C   0  0  0  0  0  0  0  0  0  0  0  0
    5.8759    5.0813   -0.8205 C   0  0  0  0  0  0  0  0  0  0  0  0
    4.3652    5.0227   -1.0017 C   0  0  0  0  0  0  0  0  0  0  0  0
    5.1441    0.7848   -0.1827 C   0  0  0  0  0  0  0  0  0  0  0  0
    2.9206    1.8456    0.5212 C   0  0  1  0  0  0  0  0  0  0  0  0
    4.0177    0.7996    0.8795 C   0  0  0  0  0  0  0  0  0  0  0  0
    8.0088    4.2468   -1.5551 N   0  0  0  0  0  0  0  0  0  0  0  0
    3.8341    3.7039   -0.7445 N   0  0  0  0  0  0  0  0  0  0  0  0
    6.0842    3.4386   -2.5883 O   0  0  0  0  0  0  0  0  0  0  0  0
    3.4394    3.9845    1.5246 O   0  0  0  0  0  0  0  0  0  0  0  0
    4.6310    0.4533   -1.4686 O   0  0  0  0  0  0  0  0  0  0  0  0
    1.8684    1.7848    1.4806 O   0  0  0  0  0  0  0  0  0  0  0  0
   11.3955    2.7268   -2.9597 S   0  0  0  0  0  0  0  0  0  0  0  0
    8.5045    2.8761   -3.0181 H   0  0  0  0  0  0  0  0  0  0  0  0
   10.6279    4.3071   -1.2873 H   0  0  0  0  0  0  0  0  0  0  0  0
    2.9163   -0.8617   -0.0347 H   0  0  0  0  0  0  0  0  0  0  0  0
    2.5673   -0.6491    1.6832 H   0  0  0  0  0  0  0  0  0  0  0  0
    4.0955   -1.3780    1.1811 H   0  0  0  0  0  0  0  0  0  0  0  0
    5.1012    2.0652    2.3083 H   0  0  0  0  0  0  0  0  0  0  0  0
    5.3767    0.3360    2.5318 H   0  0  0  0  0  0  0  0  0  0  0  0
    3.8494    1.0735    3.0511 H   0  0  0  0  0  0  0  0  0  0  0  0
    6.2194    6.1035   -1.0197 H   0  0  0  0  0  0  0  0  0  0  0  0
    6.1451    4.8296    0.2125 H   0  0  0  0  0  0  0  0  0  0  0  0
    4.0671    5.3066   -2.0156 H   0  0  0  0  0  0  0  0  0  0  0  0
    3.8790    5.7041   -0.2963 H   0  0  0  0  0  0  0  0  0  0  0  0
    5.9092    0.0423    0.0668 H   0  0  0  0  0  0  0  0  0  0  0  0
    5.6279    1.7645   -0.2579 H   0  0  0  0  0  0  0  0  0  0  0  0
    2.4810    1.6051   -0.4551 H   0  0  0  0  0  0  0  0  0  0  0  0
    8.3461    4.8803   -0.8354 H   0  0  0  0  0  0  0  0  0  0  0  0
    3.8004    3.0519   -1.5223 H   0  0  0  0  0  0  0  0  0  0  0  0
    5.3848    0.4625   -2.0793 H   0  0  0  0  0  0  0  0  0  0  0  0
    1.1844    2.4029    1.1798 H   0  0  0  0  0  0  0  0  0  0  0  0
   12.5013    3.1928   -2.3639 H   0  0  0  0  0  0  0  0  0  0  0  0
  1  2  2  0  0  0  0
  1 12  1  0  0  0  0
  1 19  1  0  0  0  0
  2 18  1  0  0  0  0
  2 20  1  0  0  0  0
  3  7  1  0  0  0  0
  3 12  1  0  0  0  0
  3 14  2  0  0  0  0
  4 10  1  0  0  0  0
  4 13  1  0  0  0  0
  4 15  2  0  0  0  0
  5 11  1  0  0  0  0
  5 21  1  0  0  0  0
  5 22  1  0  0  0  0
  5 23  1  0  0  0  0
  6 11  1  0  0  0  0
  6 24  1  0  0  0  0
  6 25  1  0  0  0  0
  6 26  1  0  0  0  0
  7  8  1  0  0  0  0
  7 27  1  0  0  0  0
  7 28  1  0  0  0  0
  8 13  1  0  0  0  0
  8 29  1  0  0  0  0
  8 30  1  0  0  0  0
  9 11  1  0  0  0  0
  9 16  1  0  0  0  0
  9 31  1  0  0  0  0
  9 32  1  0  0  0  0
 10 11  1  0  0  0  0
 10 17  1  0  0  0  0
 10 33  1  6  0  0  0
 12 34  1  0  0  0  0
 13 35  1  0  0  0  0
 16 36  1  0  0  0  0
 17 37  1  0  0  0  0
 18 38  1  0  0  0  0
M  END
$$$$
DrugBank_661
 OpenBabel01151909533D

 66 67  0  0  1  0  0  0  0  0999 V2000
    4.4490   -7.4385    1.6265 C   0  0  0  0  0  0  0  0  0  0  0  0
    3.0662   -5.8066    2.7498 C   0  0  0  0  0  0  0  0  0  0  0  0
    4.3963   -6.6788    0.4579 C   0  0  0  0  0  0  0  0  0  0  0  0
    3.0135   -5.0468    1.5812 C   0  0  0  0  0  0  0  0  0  0  0  0
    3.7839   -7.0024    2.7725 C   0  0  0  0  0  0  0  0  0  0  0  0
    3.6786   -5.4830    0.4352 C   0  0  0  0  0  0  0  0  0  0  0  0
    2.8512   -9.6652    5.4138 C   0  0  0  0  0  0  0  0  0  0  0  0
   -0.5570   -1.6055   -5.9731 C   0  0  0  0  0  0  0  0  0  0  0  0
   -1.7949   -2.9526   -4.2516 C   0  0  0  0  0  0  0  0  0  0  0  0
   -1.8784   -0.9152   -6.3106 C   0  0  0  0  0  0  0  0  0  0  0  0
   -3.0676   -2.2096   -4.6577 C   0  0  0  0  0  0  0  0  0  0  0  0
   -0.5466   -2.1031   -4.5222 C   0  0  0  0  0  0  0  0  0  0  0  0
   -3.2136  -12.4948    2.4013 C   0  0  0  0  0  0  0  0  0  0  0  0
    3.8406   -7.8142    4.0221 C   0  0  0  0  0  0  0  0  0  0  0  0
    0.7269   -2.8881   -4.2207 C   0  0  0  0  0  0  0  0  0  0  0  0
   -2.1981  -11.8716    3.3084 C   0  0  0  0  0  0  0  0  0  0  0  0
    0.9691   -2.9956   -2.7175 C   0  0  0  0  0  0  0  0  0  0  0  0
    2.2263   -3.8094   -2.4191 C   0  0  0  0  0  0  0  0  0  0  0  0
   -1.5256  -10.6625    2.6607 C   0  0  0  0  0  0  0  0  0  0  0  0
    2.4563   -3.9599   -0.9220 C   0  0  0  0  0  0  0  0  0  0  0  0
   -0.4654  -10.0644    3.5716 C   0  0  0  0  0  0  0  0  0  0  0  0
    2.7067   -8.8523    4.1356 C   0  0  2  0  0  0  0  0  0  0  0  0
   -3.0281   -1.7868   -6.0593 N   0  0  0  0  0  0  0  0  0  0  0  0
    1.4163   -8.2132    4.0691 N   0  0  0  0  0  0  0  0  0  0  0  0
    1.9982   -9.6806    6.2950 O   0  0  0  0  0  0  0  0  0  0  0  0
    1.0362   -9.0915    1.6614 O   0  0  0  0  0  0  0  0  0  0  0  0
   -0.7143   -7.6134    2.7137 O   0  0  0  0  0  0  0  0  0  0  0  0
    3.9969  -10.3821    5.5055 O   0  0  0  0  0  0  0  0  0  0  0  0
    3.6280   -4.7359   -0.7130 O   0  0  0  0  0  0  0  0  0  0  0  0
    0.3010   -8.6428    2.8276 S   0  0  0  0  0  0  0  0  0  0  0  0
    5.0104   -8.3689    1.6351 H   0  0  0  0  0  0  0  0  0  0  0  0
    2.5448   -5.4590    3.6380 H   0  0  0  0  0  0  0  0  0  0  0  0
    4.9167   -7.0238   -0.4316 H   0  0  0  0  0  0  0  0  0  0  0  0
    2.4532   -4.1162    1.5700 H   0  0  0  0  0  0  0  0  0  0  0  0
   -0.4014   -2.4482   -6.6595 H   0  0  0  0  0  0  0  0  0  0  0  0
    0.2717   -0.9060   -6.1351 H   0  0  0  0  0  0  0  0  0  0  0  0
   -1.8477   -3.2127   -3.1877 H   0  0  0  0  0  0  0  0  0  0  0  0
   -1.7327   -3.8972   -4.8078 H   0  0  0  0  0  0  0  0  0  0  0  0
   -1.9778    0.0139   -5.7360 H   0  0  0  0  0  0  0  0  0  0  0  0
   -1.8744   -0.6357   -7.3700 H   0  0  0  0  0  0  0  0  0  0  0  0
   -3.9287   -2.8713   -4.5140 H   0  0  0  0  0  0  0  0  0  0  0  0
   -3.2216   -1.3399   -4.0071 H   0  0  0  0  0  0  0  0  0  0  0  0
   -0.5722   -1.2295   -3.8571 H   0  0  0  0  0  0  0  0  0  0  0  0
   -2.7521  -12.8085    1.4590 H   0  0  0  0  0  0  0  0  0  0  0  0
   -3.6464  -13.3812    2.8796 H   0  0  0  0  0  0  0  0  0  0  0  0
   -4.0265  -11.7929    2.1881 H   0  0  0  0  0  0  0  0  0  0  0  0
    3.8091   -7.1356    4.8925 H   0  0  0  0  0  0  0  0  0  0  0  0
    4.8151   -8.3278    4.1088 H   0  0  0  0  0  0  0  0  0  0  0  0
    1.5730   -2.3895   -4.7038 H   0  0  0  0  0  0  0  0  0  0  0  0
    0.6392   -3.8867   -4.6598 H   0  0  0  0  0  0  0  0  0  0  0  0
   -2.6908  -11.5694    4.2399 H   0  0  0  0  0  0  0  0  0  0  0  0
   -1.4435  -12.6231    3.5683 H   0  0  0  0  0  0  0  0  0  0  0  0
    1.0701   -1.9920   -2.2867 H   0  0  0  0  0  0  0  0  0  0  0  0
    0.1033   -3.4677   -2.2370 H   0  0  0  0  0  0  0  0  0  0  0  0
    3.1037   -3.3336   -2.8747 H   0  0  0  0  0  0  0  0  0  0  0  0
    2.1531   -4.8036   -2.8770 H   0  0  0  0  0  0  0  0  0  0  0  0
   -2.2800   -9.9030    2.4193 H   0  0  0  0  0  0  0  0  0  0  0  0
   -1.0726  -10.9566    1.7055 H   0  0  0  0  0  0  0  0  0  0  0  0
    1.6121   -4.4690   -0.4460 H   0  0  0  0  0  0  0  0  0  0  0  0
    2.5965   -2.9831   -0.4483 H   0  0  0  0  0  0  0  0  0  0  0  0
   -0.8975   -9.7323    4.5203 H   0  0  0  0  0  0  0  0  0  0  0  0
    0.3327  -10.7831    3.7799 H   0  0  0  0  0  0  0  0  0  0  0  0
    2.7394   -9.5621    3.3010 H   0  0  0  0  0  0  0  0  0  0  0  0
   -3.8865   -1.2841   -6.2831 H   0  0  0  0  0  0  0  0  0  0  0  0
    0.9803   -7.9836    4.9870 H   0  0  0  0  0  0  0  0  0  0  0  0
    4.6026  -10.2904    4.7402 H   0  0  0  0  0  0  0  0  0  0  0  0
  1  3  2  0  0  0  0
  1  5  1  0  0  0  0
  1 31  1  0  0  0  0
  2  4  1  0  0  0  0
  2  5  2  0  0  0  0
  2 32  1  0  0  0  0
  3  6  1  0  0  0  0
  3 33  1  0  0  0  0
  4  6  2  0  0  0  0
  4 34  1  0  0  0  0
  5 14  1  0  0  0  0
  6 29  1  0  0  0  0
  7 22  1  0  0  0  0
  7 25  2  0  0  0  0
  7 28  1  0  0  0  0
  8 10  1  0  0  0  0
  8 12  1  0  0  0  0
  8 35  1  0  0  0  0
  8 36  1  0  0  0  0
  9 11  1  0  0  0  0
  9 12  1  0  0  0  0
  9 37  1  0  0  0  0
  9 38  1  0  0  0  0
 10 23  1  0  0  0  0
 10 39  1  0  0  0  0
 10 40  1  0  0  0  0
 11 23  1  0  0  0  0
 11 41  1  0  0  0  0
 11 42  1  0  0  0  0
 12 15  1  0  0  0  0
 12 43  1  0  0  0  0
 13 16  1  0  0  0  0
 13 44  1  0  0  0  0
 13 45  1  0  0  0  0
 13 46  1  0  0  0  0
 14 22  1  0  0  0  0
 14 47  1  0  0  0  0
 14 48  1  0  0  0  0
 15 17  1  0  0  0  0
 15 49  1  0  0  0  0
 15 50  1  0  0  0  0
 16 19  1  0  0  0  0
 16 51  1  0  0  0  0
 16 52  1  0  0  0  0
 17 18  1  0  0  0  0
 17 53  1  0  0  0  0
 17 54  1  0  0  0  0
 18 20  1  0  0  0  0
 18 55  1  0  0  0  0
 18 56  1  0  0  0  0
 19 21  1  0  0  0  0
 19 57  1  0  0  0  0
 19 58  1  0  0  0  0
 20 29  1  0  0  0  0
 20 59  1  0  0  0  0
 20 60  1  0  0  0  0
 21 30  1  0  0  0  0
 21 61  1  0  0  0  0
 21 62  1  0  0  0  0
 22 24  1  0  0  0  0
 22 63  1  6  0  0  0
 23 64  1  0  0  0  0
 24 30  1  0  0  0  0
 24 65  1  0  0  0  0
 26 30  2  0  0  0  0
 27 30  2  0  0  0  0
 28 66  1  0  0  0  0
M  END
$$$$
DrugBank_5867
 OpenBabel01151909533D

 28 28  0  0  0  0  0  0  0  0999 V2000
    1.8851   -1.0363   -0.1124 C   0  0  0  0  0  0  0  0  0  0  0  0
    0.8066   -0.4630    0.5610 C   0  0  0  0  0  0  0  0  0  0  0  0
    1.7997   -1.0786    2.6757 C   0  0  0  0  0  0  0  0  0  0  0  0
    2.8783   -1.6520    2.0022 C   0  0  0  0  0  0  0  0  0  0  0  0
    2.9210   -1.6309    0.6081 C   0  0  0  0  0  0  0  0  0  0  0  0
    0.7638   -0.4841    1.9551 C   0  0  0  0  0  0  0  0  0  0  0  0
    3.9466   -2.2666    2.7781 C   0  0  0  0  0  0  0  0  0  0  0  0
    5.3183   -1.3873   -0.1141 C   0  0  0  0  0  0  0  0  0  0  0  0
    4.0639   -2.2371   -0.1391 C   0  0  0  0  0  0  0  0  0  0  0  0
    7.5392   -1.3020   -0.9272 C   0  0  0  0  0  0  0  0  0  0  0  0
    8.5112   -2.0873   -1.7819 C   0  0  0  0  0  0  0  0  0  0  0  0
   -0.3275    0.0954    2.6350 N   0  0  0  0  0  0  0  0  0  0  0  0
    3.9451   -2.3052    4.0105 O   0  0  0  0  0  0  0  0  0  0  0  0
    5.4350   -0.3261    0.4838 O   0  0  0  0  0  0  0  0  0  0  0  0
    6.2887   -1.9950   -0.8604 O   0  0  0  0  0  0  0  0  0  0  0  0
    7.8312   -2.2430   -3.6040 Br  0  0  0  0  0  0  0  0  0  0  0  0
    1.9093   -1.0143   -1.1989 H   0  0  0  0  0  0  0  0  0  0  0  0
    0.0049   -0.0020   -0.0103 H   0  0  0  0  0  0  0  0  0  0  0  0
    1.7647   -1.0954    3.7631 H   0  0  0  0  0  0  0  0  0  0  0  0
    4.7924   -2.7151    2.2146 H   0  0  0  0  0  0  0  0  0  0  0  0
    4.3114   -3.2227    0.2844 H   0  0  0  0  0  0  0  0  0  0  0  0
    3.7830   -2.3996   -1.1909 H   0  0  0  0  0  0  0  0  0  0  0  0
    7.9141   -1.1483    0.0900 H   0  0  0  0  0  0  0  0  0  0  0  0
    7.3533   -0.3245   -1.3837 H   0  0  0  0  0  0  0  0  0  0  0  0
    9.4845   -1.5964   -1.8633 H   0  0  0  0  0  0  0  0  0  0  0  0
    8.6313   -3.1105   -1.4174 H   0  0  0  0  0  0  0  0  0  0  0  0
   -1.0399    0.5592    2.1083 H   0  0  0  0  0  0  0  0  0  0  0  0
   -0.3240    0.1158    3.6347 H   0  0  0  0  0  0  0  0  0  0  0  0
  1  2  2  0  0  0  0
  1  5  1  0  0  0  0
  1 17  1  0  0  0  0
  2  6  1  0  0  0  0
  2 18  1  0  0  0  0
  3  4  1  0  0  0  0
  3  6  2  0  0  0  0
  3 19  1  0  0  0  0
  4  5  2  0  0  0  0
  4  7  1  0  0  0  0
  5  9  1  0  0  0  0
  6 12  1  0  0  0  0
  7 13  2  0  0  0  0
  7 20  1  0  0  0  0
  8  9  1  0  0  0  0
  8 14  2  0  0  0  0
  8 15  1  0  0  0  0
  9 21  1  0  0  0  0
  9 22  1  0  0  0  0
 10 11  1  0  0  0  0
 10 15  1  0  0  0  0
 10 23  1  0  0  0  0
 10 24  1  0  0  0  0
 11 16  1  0  0  0  0
 11 25  1  0  0  0  0
 11 26  1  0  0  0  0
 12 27  1  0  0  0  0
 12 28  1  0  0  0  0
M  END
$$$$
DrugBank_690
 OpenBabel01151909533D

 44 46  0  0  0  0  0  0  0  0999 V2000
    2.9577   -3.3958  -11.5453 C   0  0  0  0  0  0  0  0  0  0  0  0
    3.8156   -2.4824  -10.9326 C   0  0  0  0  0  0  0  0  0  0  0  0
    2.0607   -4.1354  -10.7746 C   0  0  0  0  0  0  0  0  0  0  0  0
    3.7765   -2.3087   -9.5492 C   0  0  0  0  0  0  0  0  0  0  0  0
    2.0216   -3.9616   -9.3911 C   0  0  0  0  0  0  0  0  0  0  0  0
    3.9445   -3.1069   -6.5566 C   0  0  0  0  0  0  0  0  0  0  0  0
    2.8795   -3.0483   -8.7784 C   0  0  0  0  0  0  0  0  0  0  0  0
    3.8190   -2.9093   -5.1928 C   0  0  0  0  0  0  0  0  0  0  0  0
    2.8392   -2.8682   -7.3484 C   0  0  0  0  0  0  0  0  0  0  0  0
    2.5967   -2.4858   -4.7110 C   0  0  0  0  0  0  0  0  0  0  0  0
    0.1735   -1.3258    0.8271 C   0  0  0  0  0  0  0  0  0  0  0  0
   -0.4691   -3.3386   -0.3278 C   0  0  0  0  0  0  0  0  0  0  0  0
   -1.1769   -1.3362    1.5378 C   0  0  0  0  0  0  0  0  0  0  0  0
   -1.8048   -3.3010    0.4092 C   0  0  0  0  0  0  0  0  0  0  0  0
    4.9883   -3.1558   -4.3014 C   0  0  0  0  0  0  0  0  0  0  0  0
    1.3372   -1.9858   -1.1805 C   0  0  0  0  0  0  0  0  0  0  0  0
    1.1827   -2.2504   -2.6688 C   0  0  0  0  0  0  0  0  0  0  0  0
    1.6551   -2.4543   -6.8498 N   0  0  0  0  0  0  0  0  0  0  0  0
    1.5320   -2.2597   -5.5093 N   0  0  0  0  0  0  0  0  0  0  0  0
    0.0512   -1.9736   -0.4862 N   0  0  0  0  0  0  0  0  0  0  0  0
    2.4513   -2.2818   -3.3448 N   0  0  0  0  0  0  0  0  0  0  0  0
   -1.6520   -2.6751    1.6836 O   0  0  0  0  0  0  0  0  0  0  0  0
    2.9872   -3.5296  -12.6227 H   0  0  0  0  0  0  0  0  0  0  0  0
    4.5129   -1.9052  -11.5327 H   0  0  0  0  0  0  0  0  0  0  0  0
    1.3914   -4.8457  -11.2511 H   0  0  0  0  0  0  0  0  0  0  0  0
    4.4516   -1.5925   -9.0864 H   0  0  0  0  0  0  0  0  0  0  0  0
    1.3166   -4.5447   -8.8034 H   0  0  0  0  0  0  0  0  0  0  0  0
    4.8850   -3.4396   -6.9858 H   0  0  0  0  0  0  0  0  0  0  0  0
    0.5062   -0.2881    0.7096 H   0  0  0  0  0  0  0  0  0  0  0  0
    0.9136   -1.8528    1.4433 H   0  0  0  0  0  0  0  0  0  0  0  0
    0.2427   -3.9539    0.2380 H   0  0  0  0  0  0  0  0  0  0  0  0
   -0.6177   -3.8052   -1.3083 H   0  0  0  0  0  0  0  0  0  0  0  0
   -1.0729   -0.9084    2.5401 H   0  0  0  0  0  0  0  0  0  0  0  0
   -1.9222   -0.7399    0.9978 H   0  0  0  0  0  0  0  0  0  0  0  0
   -2.5723   -2.7715   -0.1688 H   0  0  0  0  0  0  0  0  0  0  0  0
   -2.1650   -4.3204    0.5807 H   0  0  0  0  0  0  0  0  0  0  0  0
    5.5821   -2.2403   -4.1874 H   0  0  0  0  0  0  0  0  0  0  0  0
    4.6677   -3.4881   -3.3053 H   0  0  0  0  0  0  0  0  0  0  0  0
    5.6382   -3.9437   -4.7045 H   0  0  0  0  0  0  0  0  0  0  0  0
    1.8185   -1.0204   -0.9944 H   0  0  0  0  0  0  0  0  0  0  0  0
    1.9433   -2.7720   -0.7199 H   0  0  0  0  0  0  0  0  0  0  0  0
    0.7068   -3.2220   -2.8334 H   0  0  0  0  0  0  0  0  0  0  0  0
    0.5726   -1.4791   -3.1497 H   0  0  0  0  0  0  0  0  0  0  0  0
    3.2956   -2.1460   -2.7948 H   0  0  0  0  0  0  0  0  0  0  0  0
  1  2  2  0  0  0  0
  1  3  1  0  0  0  0
  1 23  1  0  0  0  0
  2  4  1  0  0  0  0
  2 24  1  0  0  0  0
  3  5  2  0  0  0  0
  3 25  1  0  0  0  0
  4  7  2  0  0  0  0
  4 26  1  0  0  0  0
  5  7  1  0  0  0  0
  5 27  1  0  0  0  0
  6  8  2  0  0  0  0
  6  9  1  0  0  0  0
  6 28  1  0  0  0  0
  7  9  1  0  0  0  0
  8 10  1  0  0  0  0
  8 15  1  0  0  0  0
  9 18  2  0  0  0  0
 10 19  2  0  0  0  0
 10 21  1  0  0  0  0
 11 13  1  0  0  0  0
 11 20  1  0  0  0  0
 11 29  1  0  0  0  0
 11 30  1  0  0  0  0
 12 14  1  0  0  0  0
 12 20  1  0  0  0  0
 12 31  1  0  0  0  0
 12 32  1  0  0  0  0
 13 22  1  0  0  0  0
 13 33  1  0  0  0  0
 13 34  1  0  0  0  0
 14 22  1  0  0  0  0
 14 35  1  0  0  0  0
 14 36  1  0  0  0  0
 15 37  1  0  0  0  0
 15 38  1  0  0  0  0
 15 39  1  0  0  0  0
 16 17  1  0  0  0  0
 16 20  1  0  0  0  0
 16 40  1  0  0  0  0
 16 41  1  0  0  0  0
 17 21  1  0  0  0  0
 17 42  1  0  0  0  0
 17 43  1  0  0  0  0
 18 19  1  0  0  0  0
 21 44  1  0  0  0  0
M  END
$$$$
DrugBank_3406
 OpenBabel01151909533D

 22 21  0  0  1  0  0  0  0  0999 V2000
    2.4096   -0.6656   -2.4087 C   0  0  0  0  0  0  0  0  0  0  0  0
    3.2155    0.8489    2.9677 C   0  0  0  0  0  0  0  0  0  0  0  0
    0.9825   -0.3523   -0.3403 C   0  0  0  0  0  0  0  0  0  0  0  0
    2.0669    0.3268    0.4905 C   0  0  0  0  0  0  0  0  0  0  0  0
    1.1106   -0.1067   -1.8473 C   0  0  1  0  0  0  0  0  0  0  0  0
    0.9261    1.2839   -2.1750 N   0  0  0  0  0  0  0  0  0  0  0  0
    3.2451    0.0253   -2.9817 O   0  0  0  0  0  0  0  0  0  0  0  0
    0.6260    0.7204    2.6357 O   0  0  0  0  0  0  0  0  0  0  0  0
    1.9850   -1.3988    2.4521 O   0  0  0  0  0  0  0  0  0  0  0  0
    2.5989   -1.9870   -2.1769 O   0  0  0  0  0  0  0  0  0  0  0  0
    1.8308    0.0261    2.2147 S   0  0  0  0  0  0  0  0  0  0  0  0
    3.1505    0.7136    4.0484 H   0  0  0  0  0  0  0  0  0  0  0  0
    4.1330    0.4028    2.5810 H   0  0  0  0  0  0  0  0  0  0  0  0
    3.1675    1.9083    2.7113 H   0  0  0  0  0  0  0  0  0  0  0  0
    1.0047   -1.4319   -0.1438 H   0  0  0  0  0  0  0  0  0  0  0  0
    0.0000   -0.0000    0.0000 H   0  0  0  0  0  0  0  0  0  0  0  0
    2.0556    1.4127    0.3609 H   0  0  0  0  0  0  0  0  0  0  0  0
    3.0637   -0.0488    0.2426 H   0  0  0  0  0  0  0  0  0  0  0  0
    0.3043   -0.6384   -2.3667 H   0  0  0  0  0  0  0  0  0  0  0  0
    0.2671    1.8281   -1.6436 H   0  0  0  0  0  0  0  0  0  0  0  0
    1.2959    1.6348   -3.0428 H   0  0  0  0  0  0  0  0  0  0  0  0
    1.8616   -2.4342   -1.7109 H   0  0  0  0  0  0  0  0  0  0  0  0
  1  5  1  0  0  0  0
  1  7  2  0  0  0  0
  1 10  1  0  0  0  0
  2 11  1  0  0  0  0
  2 12  1  0  0  0  0
  2 13  1  0  0  0  0
  2 14  1  0  0  0  0
  3  4  1  0  0  0  0
  3  5  1  0  0  0  0
  3 15  1  0  0  0  0
  3 16  1  0  0  0  0
  4 11  1  0  0  0  0
  4 17  1  0  0  0  0
  4 18  1  0  0  0  0
  5  6  1  0  0  0  0
  5 19  1  6  0  0  0
  6 20  1  0  0  0  0
  6 21  1  0  0  0  0
  8 11  2  0  0  0  0
  9 11  2  0  0  0  0
 10 22  1  0  0  0  0
M  END
$$$$
DrugBank_700
 OpenBabel01151909533D

 42 41  0  0  0  0  0  0  0  0999 V2000
    1.1095    5.9046    4.0092 C   0  0  0  0  0  0  0  0  0  0  0  0
    1.9638    4.8423    3.3340 C   0  0  0  0  0  0  0  0  0  0  0  0
    2.6423    3.9368    4.3627 C   0  0  0  0  0  0  0  0  0  0  0  0
    3.5759    2.8945    3.7385 C   0  0  0  0  0  0  0  0  0  0  0  0
    4.2322    1.9730    4.7696 C   0  0  0  0  0  0  0  0  0  0  0  0
    5.0972    0.8741    4.1418 C   0  0  0  0  0  0  0  0  0  0  0  0
    5.7353   -0.1179    5.1203 C   0  0  0  0  0  0  0  0  0  0  0  0
    6.6570   -1.1326    4.4395 C   0  0  0  0  0  0  0  0  0  0  0  0
    7.2846   -2.1317    5.4169 C   0  0  0  0  0  0  0  0  0  0  0  0
    8.1875   -3.1622    4.7341 C   0  0  0  0  0  0  0  0  0  0  0  0
    8.7654   -4.1517    5.7516 C   0  0  0  0  0  0  0  0  0  0  0  0
    9.6896   -5.1736    5.1006 C   0  0  0  0  0  0  0  0  0  0  0  0
   11.5632   -7.9381    6.8932 O   0  0  0  0  0  0  0  0  0  0  0  0
   12.3665   -6.5335    5.0484 O   0  0  0  0  0  0  0  0  0  0  0  0
   10.4754   -8.0557    4.6904 O   0  0  0  0  0  0  0  0  0  0  0  0
   10.2118   -6.0523    6.0867 O   0  0  0  0  0  0  0  0  0  0  0  0
   11.2405   -7.2524    5.6428 S   0  0  0  0  0  0  0  0  0  0  0  0
    1.7103    6.5196    4.6869 H   0  0  0  0  0  0  0  0  0  0  0  0
    0.6625    6.5644    3.2590 H   0  0  0  0  0  0  0  0  0  0  0  0
    0.2992    5.4478    4.5862 H   0  0  0  0  0  0  0  0  0  0  0  0
    1.3253    4.2528    2.6679 H   0  0  0  0  0  0  0  0  0  0  0  0
    2.7211    5.3330    2.7117 H   0  0  0  0  0  0  0  0  0  0  0  0
    1.8826    3.4327    4.9726 H   0  0  0  0  0  0  0  0  0  0  0  0
    3.2346    4.5572    5.0471 H   0  0  0  0  0  0  0  0  0  0  0  0
    4.3520    3.4369    3.1866 H   0  0  0  0  0  0  0  0  0  0  0  0
    3.0225    2.2966    3.0044 H   0  0  0  0  0  0  0  0  0  0  0  0
    4.8292    2.5657    5.4720 H   0  0  0  0  0  0  0  0  0  0  0  0
    3.4573    1.4780    5.3657 H   0  0  0  0  0  0  0  0  0  0  0  0
    5.8964    1.3439    3.5550 H   0  0  0  0  0  0  0  0  0  0  0  0
    4.4795    0.3161    3.4268 H   0  0  0  0  0  0  0  0  0  0  0  0
    4.9501   -0.6334    5.6829 H   0  0  0  0  0  0  0  0  0  0  0  0
    6.3140    0.4563    5.8546 H   0  0  0  0  0  0  0  0  0  0  0  0
    7.4676   -0.5957    3.9316 H   0  0  0  0  0  0  0  0  0  0  0  0
    6.1082   -1.6845    3.6680 H   0  0  0  0  0  0  0  0  0  0  0  0
    7.8753   -1.5671    6.1490 H   0  0  0  0  0  0  0  0  0  0  0  0
    6.4941   -2.6448    5.9778 H   0  0  0  0  0  0  0  0  0  0  0  0
    9.0071   -2.6479    4.2180 H   0  0  0  0  0  0  0  0  0  0  0  0
    7.6189   -3.7110    3.9756 H   0  0  0  0  0  0  0  0  0  0  0  0
    7.9377   -4.6748    6.2458 H   0  0  0  0  0  0  0  0  0  0  0  0
    9.3224   -3.6060    6.5219 H   0  0  0  0  0  0  0  0  0  0  0  0
   10.5283   -4.6640    4.6156 H   0  0  0  0  0  0  0  0  0  0  0  0
    9.1548   -5.7634    4.3492 H   0  0  0  0  0  0  0  0  0  0  0  0
  1  2  1  0  0  0  0
  1 18  1  0  0  0  0
  1 19  1  0  0  0  0
  1 20  1  0  0  0  0
  2  3  1  0  0  0  0
  2 21  1  0  0  0  0
  2 22  1  0  0  0  0
  3  4  1  0  0  0  0
  3 23  1  0  0  0  0
  3 24  1  0  0  0  0
  4  5  1  0  0  0  0
  4 25  1  0  0  0  0
  4 26  1  0  0  0  0
  5  6  1  0  0  0  0
  5 27  1  0  0  0  0
  5 28  1  0  0  0  0
  6  7  1  0  0  0  0
  6 29  1  0  0  0  0
  6 30  1  0  0  0  0
  7  8  1  0  0  0  0
  7 31  1  0  0  0  0
  7 32  1  0  0  0  0
  8  9  1  0  0  0  0
  8 33  1  0  0  0  0
  8 34  1  0  0  0  0
  9 10  1  0  0  0  0
  9 35  1  0  0  0  0
  9 36  1  0  0  0  0
 10 11  1  0  0  0  0
 10 37  1  0  0  0  0
 10 38  1  0  0  0  0
 11 12  1  0  0  0  0
 11 39  1  0  0  0  0
 11 40  1  0  0  0  0
 12 16  1  0  0  0  0
 12 41  1  0  0  0  0
 12 42  1  0  0  0  0
 13 17  1  0  0  0  0
 14 17  2  0  0  0  0
 15 17  2  0  0  0  0
 16 17  1  0  0  0  0
M  END
$$$$
DrugBank_5899
 OpenBabel01151909533D

 46 48  0  0  1  0  0  0  0  0999 V2000
   -3.3125    6.2980   -3.3458 C   0  0  0  0  0  0  0  0  0  0  0  0
   -2.4221   -4.4131    0.3118 C   0  0  0  0  0  0  0  0  0  0  0  0
   -3.9671    5.7310   -2.2524 C   0  0  0  0  0  0  0  0  0  0  0  0
   -3.0638    5.5314   -4.4843 C   0  0  0  0  0  0  0  0  0  0  0  0
   -3.5782   -3.6432    0.4388 C   0  0  0  0  0  0  0  0  0  0  0  0
   -1.1906   -3.7926    0.1011 C   0  0  0  0  0  0  0  0  0  0  0  0
   -4.3729    4.3972   -2.2974 C   0  0  0  0  0  0  0  0  0  0  0  0
   -3.4697    4.1976   -4.5292 C   0  0  0  0  0  0  0  0  0  0  0  0
   -3.5031   -2.2529    0.3549 C   0  0  0  0  0  0  0  0  0  0  0  0
   -1.1155   -2.4023    0.0171 C   0  0  0  0  0  0  0  0  0  0  0  0
   -4.1242    3.6305   -3.4358 C   0  0  0  0  0  0  0  0  0  0  0  0
   -2.2717   -1.6324    0.1441 C   0  0  0  0  0  0  0  0  0  0  0  0
   -0.6059    4.1293   -0.2860 C   0  0  0  0  0  0  0  0  0  0  0  0
   -0.3736    6.3545   -1.0352 C   0  0  0  0  0  0  0  0  0  0  0  0
   -0.9450    1.9213    0.8700 C   0  0  0  0  0  0  0  0  0  0  0  0
   -3.5247    1.1257   -1.6389 C   0  0  0  0  0  0  0  0  0  0  0  0
   -4.5603    2.1956   -3.4848 C   0  0  0  0  0  0  0  0  0  0  0  0
   -0.8459    0.4387    0.5434 C   0  0  0  0  0  0  0  0  0  0  0  0
   -2.1894   -0.1220    0.0526 C   0  0  1  0  0  0  0  0  0  0  0  0
   -0.8379    4.9951    0.6776 N   0  0  0  0  0  0  0  0  0  0  0  0
   -0.7027    6.3003    0.2378 N   0  0  0  0  0  0  0  0  0  0  0  0
   -0.6470    2.7165   -0.2290 N   0  0  0  0  0  0  0  0  0  0  0  0
   -2.4583    0.3225   -1.2975 N   0  0  0  0  0  0  0  0  0  0  0  0
   -1.2310    2.2877    2.0065 O   0  0  0  0  0  0  0  0  0  0  0  0
   -4.3703    1.5629   -0.8652 O   0  0  0  0  0  0  0  0  0  0  0  0
   -3.5041    1.3687   -2.9835 O   0  0  0  0  0  0  0  0  0  0  0  0
   -0.2032    4.8286   -1.7994 S   0  0  0  0  0  0  0  0  0  0  0  0
   -0.1337    7.8712   -1.8644 S   0  0  0  0  0  0  0  0  0  0  0  0
   -2.9978    7.3369   -3.3111 H   0  0  0  0  0  0  0  0  0  0  0  0
   -2.4806   -5.4955    0.3786 H   0  0  0  0  0  0  0  0  0  0  0  0
   -4.1618    6.3281   -1.3663 H   0  0  0  0  0  0  0  0  0  0  0  0
   -2.5552    5.9728   -5.3361 H   0  0  0  0  0  0  0  0  0  0  0  0
   -4.5370   -4.1261    0.6041 H   0  0  0  0  0  0  0  0  0  0  0  0
   -0.2901   -4.3916    0.0032 H   0  0  0  0  0  0  0  0  0  0  0  0
   -4.8821    3.9637   -1.4406 H   0  0  0  0  0  0  0  0  0  0  0  0
   -3.2715    3.6079   -5.4204 H   0  0  0  0  0  0  0  0  0  0  0  0
   -4.4092   -1.6611    0.4548 H   0  0  0  0  0  0  0  0  0  0  0  0
   -0.1518   -1.9276   -0.1474 H   0  0  0  0  0  0  0  0  0  0  0  0
   -5.4571    2.0377   -2.8760 H   0  0  0  0  0  0  0  0  0  0  0  0
   -4.7941    1.8963   -4.5122 H   0  0  0  0  0  0  0  0  0  0  0  0
   -0.0846    0.3324   -0.2406 H   0  0  0  0  0  0  0  0  0  0  0  0
   -0.4649   -0.1187    1.4080 H   0  0  0  0  0  0  0  0  0  0  0  0
   -2.9916    0.3171    0.6593 H   0  0  0  0  0  0  0  0  0  0  0  0
   -0.4333    2.2256   -1.0941 H   0  0  0  0  0  0  0  0  0  0  0  0
   -1.8267    0.0263   -2.0340 H   0  0  0  0  0  0  0  0  0  0  0  0
    0.1729    7.3940   -3.0860 H   0  0  0  0  0  0  0  0  0  0  0  0
  1  3  2  0  0  0  0
  1  4  1  0  0  0  0
  1 29  1  0  0  0  0
  2  5  2  0  0  0  0
  2  6  1  0  0  0  0
  2 30  1  0  0  0  0
  3  7  1  0  0  0  0
  3 31  1  0  0  0  0
  4  8  2  0  0  0  0
  4 32  1  0  0  0  0
  5  9  1  0  0  0  0
  5 33  1  0  0  0  0
  6 10  2  0  0  0  0
  6 34  1  0  0  0  0
  7 11  2  0  0  0  0
  7 35  1  0  0  0  0
  8 11  1  0  0  0  0
  8 36  1  0  0  0  0
  9 12  2  0  0  0  0
  9 37  1  0  0  0  0
 10 12  1  0  0  0  0
 10 38  1  0  0  0  0
 11 17  1  0  0  0  0
 12 19  1  0  0  0  0
 13 20  2  0  0  0  0
 13 22  1  0  0  0  0
 13 27  1  0  0  0  0
 14 21  2  0  0  0  0
 14 27  1  0  0  0  0
 14 28  1  0  0  0  0
 15 18  1  0  0  0  0
 15 22  1  0  0  0  0
 15 24  2  0  0  0  0
 16 23  1  0  0  0  0
 16 25  2  0  0  0  0
 16 26  1  0  0  0  0
 17 26  1  0  0  0  0
 17 39  1  0  0  0  0
 17 40  1  0  0  0  0
 18 19  1  0  0  0  0
 18 41  1  0  0  0  0
 18 42  1  0  0  0  0
 19 23  1  0  0  0  0
 19 43  1  1  0  0  0
 20 21  1  0  0  0  0
 22 44  1  0  0  0  0
 23 45  1  0  0  0  0
 28 46  1  0  0  0  0
M  END
$$$$
DrugBank_5900
 OpenBabel01151909533D

 37 38  0  0  1  0  0  0  0  0999 V2000
    4.0635    5.4258    1.1579 C   0  0  0  0  0  0  0  0  0  0  0  0
    3.5942    6.4889    1.9293 C   0  0  0  0  0  0  0  0  0  0  0  0
    4.8808    5.6720    0.0547 C   0  0  0  0  0  0  0  0  0  0  0  0
    3.9421    7.7983    1.5975 C   0  0  0  0  0  0  0  0  0  0  0  0
    5.2287    6.9814   -0.2772 C   0  0  0  0  0  0  0  0  0  0  0  0
    4.7594    8.0445    0.4942 C   0  0  0  0  0  0  0  0  0  0  0  0
   -2.2956    5.1142    1.4582 C   0  0  0  0  0  0  0  0  0  0  0  0
   -4.5282    5.8457    1.6762 C   0  0  0  0  0  0  0  0  0  0  0  0
    2.3058    2.0253    0.8417 C   0  0  0  0  0  0  0  0  0  0  0  0
    0.0051    4.2783    0.8350 C   0  0  0  0  0  0  0  0  0  0  0  0
    2.7805    0.0489   -0.6029 C   0  0  0  0  0  0  0  0  0  0  0  0
    3.6870    4.0091    1.5169 C   0  0  0  0  0  0  0  0  0  0  0  0
    2.3956    3.5471    0.8321 C   0  0  2  0  0  0  0  0  0  0  0  0
   -2.9385    5.0673    0.3108 N   0  0  0  0  0  0  0  0  0  0  0  0
   -4.2477    5.4973    0.4385 N   0  0  0  0  0  0  0  0  0  0  0  0
   -0.9532    4.7614    1.7303 N   0  0  0  0  0  0  0  0  0  0  0  0
    2.7938    1.4686   -0.3324 N   0  0  0  0  0  0  0  0  0  0  0  0
    1.2183    4.0479    1.4957 N   0  0  0  0  0  0  0  0  0  0  0  0
    1.8143    1.3899    1.7720 O   0  0  0  0  0  0  0  0  0  0  0  0
   -0.1526    4.0717   -0.3659 O   0  0  0  0  0  0  0  0  0  0  0  0
    2.8079    6.2625    2.9909 F   0  0  0  0  0  0  0  0  0  0  0  0
    5.3371    4.6569   -0.6923 F   0  0  0  0  0  0  0  0  0  0  0  0
    3.4910    8.8193    2.3378 F   0  0  0  0  0  0  0  0  0  0  0  0
    6.0139    7.2179   -1.3361 F   0  0  0  0  0  0  0  0  0  0  0  0
    5.0935    9.3018    0.1756 F   0  0  0  0  0  0  0  0  0  0  0  0
   -3.2277    5.6805    2.7820 S   0  0  0  0  0  0  0  0  0  0  0  0
   -6.1071    6.4286    2.1374 S   0  0  0  0  0  0  0  0  0  0  0  0
    3.7054   -0.4105   -0.2445 H   0  0  0  0  0  0  0  0  0  0  0  0
    2.6922   -0.1302   -1.6779 H   0  0  0  0  0  0  0  0  0  0  0  0
    1.9339   -0.4242   -0.0980 H   0  0  0  0  0  0  0  0  0  0  0  0
    4.5144    3.3319    1.2651 H   0  0  0  0  0  0  0  0  0  0  0  0
    3.5859    3.9464    2.6085 H   0  0  0  0  0  0  0  0  0  0  0  0
    2.3456    3.9030   -0.2037 H   0  0  0  0  0  0  0  0  0  0  0  0
   -0.6537    4.8754    2.6955 H   0  0  0  0  0  0  0  0  0  0  0  0
    3.1797    2.0902   -1.0369 H   0  0  0  0  0  0  0  0  0  0  0  0
    1.2711    4.2435    2.4922 H   0  0  0  0  0  0  0  0  0  0  0  0
   -5.8775    6.6358    3.4482 H   0  0  0  0  0  0  0  0  0  0  0  0
  1  2  2  0  0  0  0
  1  3  1  0  0  0  0
  1 12  1  0  0  0  0
  2  4  1  0  0  0  0
  2 21  1  0  0  0  0
  3  5  2  0  0  0  0
  3 22  1  0  0  0  0
  4  6  2  0  0  0  0
  4 23  1  0  0  0  0
  5  6  1  0  0  0  0
  5 24  1  0  0  0  0
  6 25  1  0  0  0  0
  7 14  2  0  0  0  0
  7 16  1  0  0  0  0
  7 26  1  0  0  0  0
  8 15  2  0  0  0  0
  8 26  1  0  0  0  0
  8 27  1  0  0  0  0
  9 13  1  0  0  0  0
  9 17  1  0  0  0  0
  9 19  2  0  0  0  0
 10 16  1  0  0  0  0
 10 18  1  0  0  0  0
 10 20  2  0  0  0  0
 11 17  1  0  0  0  0
 11 28  1  0  0  0  0
 11 29  1  0  0  0  0
 11 30  1  0  0  0  0
 12 13  1  0  0  0  0
 12 31  1  0  0  0  0
 12 32  1  0  0  0  0
 13 18  1  0  0  0  0
 13 33  1  6  0  0  0
 14 15  1  0  0  0  0
 16 34  1  0  0  0  0
 17 35  1  0  0  0  0
 18 36  1  0  0  0  0
 27 37  1  0  0  0  0
M  END
$$$$
DrugBank_5902
 OpenBabel01151909533D

 32 32  0  0  1  0  0  0  0  0999 V2000
    2.6868   -1.4269    6.1256 C   0  0  0  0  0  0  0  0  0  0  0  0
    1.8159   -0.5564    6.7807 C   0  0  0  0  0  0  0  0  0  0  0  0
    2.8133   -1.3732    4.7375 C   0  0  0  0  0  0  0  0  0  0  0  0
    1.0714    0.3678    6.0478 C   0  0  0  0  0  0  0  0  0  0  0  0
    2.0688   -0.4490    4.0045 C   0  0  0  0  0  0  0  0  0  0  0  0
    1.1978    0.4216    4.6597 C   0  0  0  0  0  0  0  0  0  0  0  0
   -0.1352    5.4097    5.4014 C   0  0  0  0  0  0  0  0  0  0  0  0
    1.5388    3.6147    0.5501 C   0  0  0  0  0  0  0  0  0  0  0  0
   -0.7748    4.8546    4.1355 C   0  0  0  0  0  0  0  0  0  0  0  0
    0.1370    2.5490    4.5932 C   0  0  0  0  0  0  0  0  0  0  0  0
    0.0038    3.6682    3.5639 C   0  0  2  0  0  0  0  0  0  0  0  0
    0.5299    6.0013    1.5327 O   0  0  0  0  0  0  0  0  0  0  0  0
    0.4659    1.3277    3.9395 O   0  0  0  0  0  0  0  0  0  0  0  0
    1.3104    4.1094    3.1955 O   0  0  0  0  0  0  0  0  0  0  0  0
    1.4977    4.8853    1.7951 P   0  0  1  0  0  0  0  0  0  0  0  0
    3.3821    5.5477    1.9445 Cl  0  0  0  0  0  0  0  0  0  0  0  0
    3.2670   -2.1463    6.6960 H   0  0  0  0  0  0  0  0  0  0  0  0
    1.7171   -0.5982    7.8616 H   0  0  0  0  0  0  0  0  0  0  0  0
    3.4918   -2.0514    4.2280 H   0  0  0  0  0  0  0  0  0  0  0  0
    0.3936    1.0422    6.5641 H   0  0  0  0  0  0  0  0  0  0  0  0
    2.1701   -0.4129    2.9233 H   0  0  0  0  0  0  0  0  0  0  0  0
    0.8941    5.7342    5.2196 H   0  0  0  0  0  0  0  0  0  0  0  0
   -0.7029    6.2634    5.7849 H   0  0  0  0  0  0  0  0  0  0  0  0
   -0.1124    4.6406    6.1800 H   0  0  0  0  0  0  0  0  0  0  0  0
    2.2674    2.8467    0.8216 H   0  0  0  0  0  0  0  0  0  0  0  0
    0.5542    3.1500    0.4558 H   0  0  0  0  0  0  0  0  0  0  0  0
    1.8208    4.0439   -0.4146 H   0  0  0  0  0  0  0  0  0  0  0  0
   -1.7996    4.5469    4.3767 H   0  0  0  0  0  0  0  0  0  0  0  0
   -0.8356    5.6549    3.3889 H   0  0  0  0  0  0  0  0  0  0  0  0
    0.9401    2.7626    5.3057 H   0  0  0  0  0  0  0  0  0  0  0  0
   -0.7950    2.3973    5.1465 H   0  0  0  0  0  0  0  0  0  0  0  0
   -0.4832    3.2948    2.6558 H   0  0  0  0  0  0  0  0  0  0  0  0
  1  2  2  0  0  0  0
  1  3  1  0  0  0  0
  1 17  1  0  0  0  0
  2  4  1  0  0  0  0
  2 18  1  0  0  0  0
  3  5  2  0  0  0  0
  3 19  1  0  0  0  0
  4  6  2  0  0  0  0
  4 20  1  0  0  0  0
  5  6  1  0  0  0  0
  5 21  1  0  0  0  0
  6 13  1  0  0  0  0
  7  9  1  0  0  0  0
  7 22  1  0  0  0  0
  7 23  1  0  0  0  0
  7 24  1  0  0  0  0
  8 15  1  0  0  0  0
  8 25  1  0  0  0  0
  8 26  1  0  0  0  0
  8 27  1  0  0  0  0
  9 11  1  0  0  0  0
  9 28  1  0  0  0  0
  9 29  1  0  0  0  0
 10 11  1  0  0  0  0
 10 13  1  0  0  0  0
 10 30  1  0  0  0  0
 10 31  1  0  0  0  0
 11 14  1  0  0  0  0
 11 32  1  6  0  0  0
 14 15  1  0  0  0  0
 15 12  2  6  0  0  0
 15 16  1  0  0  0  0
M  END
$$$$
DrugBank_5904
 OpenBabel01151909533D

 21 22  0  0  0  0  0  0  0  0999 V2000
   -0.7036    1.3640    1.5041 C   0  0  0  0  0  0  0  0  0  0  0  0
   -0.7671    0.1975    0.7446 C   0  0  0  0  0  0  0  0  0  0  0  0
   -1.6773    1.6439    2.4698 C   0  0  0  0  0  0  0  0  0  0  0  0
   -1.8022   -0.7245    0.9247 C   0  0  0  0  0  0  0  0  0  0  0  0
   -4.5471   -0.4724    3.2738 C   0  0  0  0  0  0  0  0  0  0  0  0
   -2.7304    0.7292    2.6692 C   0  0  0  0  0  0  0  0  0  0  0  0
   -2.7685   -0.4315    1.8936 C   0  0  0  0  0  0  0  0  0  0  0  0
   -3.8586    0.6897    3.5356 C   0  0  0  0  0  0  0  0  0  0  0  0
   -3.8818   -1.1421    2.2822 N   0  0  0  0  0  0  0  0  0  0  0  0
   -6.4366    0.9210    5.4653 O   0  0  0  0  0  0  0  0  0  0  0  0
   -4.2941    0.0167    6.4176 O   0  0  0  0  0  0  0  0  0  0  0  0
   -4.9299    2.3892    6.8077 O   0  0  0  0  0  0  0  0  0  0  0  0
   -4.2224    1.5953    4.4553 O   0  0  0  0  0  0  0  0  0  0  0  0
   -5.0381    1.1035    5.8077 S   0  0  0  0  0  0  0  0  0  0  0  0
    0.1107    2.0660    1.3460 H   0  0  0  0  0  0  0  0  0  0  0  0
    0.0002    0.0001    0.0001 H   0  0  0  0  0  0  0  0  0  0  0  0
   -1.6150    2.5571    3.0546 H   0  0  0  0  0  0  0  0  0  0  0  0
   -1.8505   -1.6326    0.3332 H   0  0  0  0  0  0  0  0  0  0  0  0
   -5.4492   -0.8842    3.7044 H   0  0  0  0  0  0  0  0  0  0  0  0
   -4.1641   -2.0314    1.8939 H   0  0  0  0  0  0  0  0  0  0  0  0
   -4.0149    2.7131    6.9811 H   0  0  0  0  0  0  0  0  0  0  0  0
  1  2  2  0  0  0  0
  1  3  1  0  0  0  0
  1 15  1  0  0  0  0
  2  4  1  0  0  0  0
  2 16  1  0  0  0  0
  3  6  2  0  0  0  0
  3 17  1  0  0  0  0
  4  7  2  0  0  0  0
  4 18  1  0  0  0  0
  5  8  2  0  0  0  0
  5  9  1  0  0  0  0
  5 19  1  0  0  0  0
  6  7  1  0  0  0  0
  6  8  1  0  0  0  0
  7  9  1  0  0  0  0
  8 13  1  0  0  0  0
  9 20  1  0  0  0  0
 10 14  2  0  0  0  0
 11 14  2  0  0  0  0
 12 14  1  0  0  0  0
 12 21  1  0  0  0  0
 13 14  1  0  0  0  0
M  END
$$$$
DrugBank_3430
 OpenBabel01151909533D

 20 19  0  0  1  0  0  0  0  0999 V2000
    2.4578   -0.9200   -0.9762 C   0  0  0  0  0  0  0  0  0  0  0  0
   -0.0647   -0.6935   -0.8488 C   0  0  0  0  0  0  0  0  0  0  0  0
   -0.2651   -2.1189   -0.3290 C   0  0  0  0  0  0  0  0  0  0  0  0
    1.1891   -0.5268   -1.7184 C   0  0  2  0  0  0  0  0  0  0  0  0
   -1.6973   -3.9653    1.1071 C   0  0  0  0  0  0  0  0  0  0  0  0
    1.0568   -1.2123   -2.9783 N   0  0  0  0  0  0  0  0  0  0  0  0
    3.2181   -1.7997   -1.3656 O   0  0  0  0  0  0  0  0  0  0  0  0
    2.6563   -0.2554    0.1875 O   0  0  0  0  0  0  0  0  0  0  0  0
   -1.7084   -4.7383   -0.0082 F   0  0  0  0  0  0  0  0  0  0  0  0
   -0.5499   -4.2520    1.7726 F   0  0  0  0  0  0  0  0  0  0  0  0
   -1.7735   -2.2179    0.6793 S   0  0  0  0  0  0  0  0  0  0  0  0
   -0.9416   -0.3950   -1.4391 H   0  0  0  0  0  0  0  0  0  0  0  0
    0.0000    0.0000    0.0000 H   0  0  0  0  0  0  0  0  0  0  0  0
   -0.3644   -2.8291   -1.1553 H   0  0  0  0  0  0  0  0  0  0  0  0
    0.5786   -2.4352    0.2915 H   0  0  0  0  0  0  0  0  0  0  0  0
    1.3072    0.5329   -1.9745 H   0  0  0  0  0  0  0  0  0  0  0  0
   -2.5463   -4.2446    1.7358 H   0  0  0  0  0  0  0  0  0  0  0  0
    1.8875   -1.4603   -3.4896 H   0  0  0  0  0  0  0  0  0  0  0  0
    0.1540   -1.2507   -3.4216 H   0  0  0  0  0  0  0  0  0  0  0  0
    1.9831    0.4262    0.3946 H   0  0  0  0  0  0  0  0  0  0  0  0
  1  4  1  0  0  0  0
  1  7  2  0  0  0  0
  1  8  1  0  0  0  0
  2  3  1  0  0  0  0
  2  4  1  0  0  0  0
  2 12  1  0  0  0  0
  2 13  1  0  0  0  0
  3 11  1  0  0  0  0
  3 14  1  0  0  0  0
  3 15  1  0  0  0  0
  4  6  1  0  0  0  0
  4 16  1  6  0  0  0
  5  9  1  0  0  0  0
  5 10  1  0  0  0  0
  5 11  1  0  0  0  0
  5 17  1  0  0  0  0
  6 18  1  0  0  0  0
  6 19  1  0  0  0  0
  8 20  1  0  0  0  0
M  END
$$$$
DrugBank_5922
 OpenBabel01151909533D

 54 56  0  0  0  0  0  0  0  0999 V2000
   -1.0654   -8.0865   -1.5403 C   0  0  0  0  0  0  0  0  0  0  0  0
   -3.0917   -7.4183   -2.6738 C   0  0  0  0  0  0  0  0  0  0  0  0
   -0.9966   -6.8361   -0.9261 C   0  0  0  0  0  0  0  0  0  0  0  0
   -3.0229   -6.1679   -2.0595 C   0  0  0  0  0  0  0  0  0  0  0  0
    3.8896    3.0000    2.5206 C   0  0  0  0  0  0  0  0  0  0  0  0
    3.0143    2.1222    1.9056 C   0  0  0  0  0  0  0  0  0  0  0  0
   -2.1129   -8.3776   -2.4143 C   0  0  0  0  0  0  0  0  0  0  0  0
   -1.9754   -5.8768   -1.1856 C   0  0  0  0  0  0  0  0  0  0  0  0
    5.0278    2.4772    3.1007 C   0  0  0  0  0  0  0  0  0  0  0  0
    3.3354    0.7797    1.9112 C   0  0  0  0  0  0  0  0  0  0  0  0
   -2.1849   -9.6813   -3.0547 C   0  0  0  0  0  0  0  0  0  0  0  0
    0.7997   -0.5839   -0.4748 C   0  0  0  0  0  0  0  0  0  0  0  0
    1.0217   -2.1064    1.4977 C   0  0  0  0  0  0  0  0  0  0  0  0
    2.1496    0.0481   -0.1357 C   0  0  0  0  0  0  0  0  0  0  0  0
    2.3728   -1.4741    1.8274 C   0  0  0  0  0  0  0  0  0  0  0  0
    0.7229   -2.0394   -0.0036 C   0  0  0  0  0  0  0  0  0  0  0  0
    6.0039    3.3796    3.7743 C   0  0  0  0  0  0  0  0  0  0  0  0
   -4.7114  -10.9378   -5.4080 C   0  0  0  0  0  0  0  0  0  0  0  0
   -0.6461   -2.6402   -0.3129 C   0  0  0  0  0  0  0  0  0  0  0  0
   -3.4596  -11.0226   -4.5609 C   0  0  0  0  0  0  0  0  0  0  0  0
   -0.6116   -4.1570   -0.2702 C   0  0  0  0  0  0  0  0  0  0  0  0
    5.3167    1.1586    3.0912 N   0  0  0  0  0  0  0  0  0  0  0  0
    4.4566    0.2959    2.4864 N   0  0  0  0  0  0  0  0  0  0  0  0
    2.4477   -0.1081    1.2917 N   0  0  0  0  0  0  0  0  0  0  0  0
   -1.3633  -10.5917   -2.8840 O   0  0  0  0  0  0  0  0  0  0  0  0
   -1.9079   -4.6478   -0.5822 O   0  0  0  0  0  0  0  0  0  0  0  0
   -3.2775   -9.7807   -3.8722 O   0  0  0  0  0  0  0  0  0  0  0  0
   -0.2972   -8.8263   -1.3302 H   0  0  0  0  0  0  0  0  0  0  0  0
   -3.9121   -7.6353   -3.3530 H   0  0  0  0  0  0  0  0  0  0  0  0
   -0.1781   -6.6154   -0.2464 H   0  0  0  0  0  0  0  0  0  0  0  0
   -3.7881   -5.4244   -2.2658 H   0  0  0  0  0  0  0  0  0  0  0  0
    3.6775    4.0635    2.5428 H   0  0  0  0  0  0  0  0  0  0  0  0
    2.1073    2.4924    1.4388 H   0  0  0  0  0  0  0  0  0  0  0  0
    0.0002    0.0003   -0.0002 H   0  0  0  0  0  0  0  0  0  0  0  0
    0.6353   -0.5279   -1.5574 H   0  0  0  0  0  0  0  0  0  0  0  0
    1.0162   -3.1486    1.8382 H   0  0  0  0  0  0  0  0  0  0  0  0
    0.2334   -1.5837    2.0554 H   0  0  0  0  0  0  0  0  0  0  0  0
    2.9407   -0.4202   -0.7355 H   0  0  0  0  0  0  0  0  0  0  0  0
    2.1164    1.1117   -0.4035 H   0  0  0  0  0  0  0  0  0  0  0  0
    2.4982   -1.4617    2.9174 H   0  0  0  0  0  0  0  0  0  0  0  0
    3.1830   -2.0840    1.4071 H   0  0  0  0  0  0  0  0  0  0  0  0
    1.4811   -2.6244   -0.5406 H   0  0  0  0  0  0  0  0  0  0  0  0
    5.7492    3.4959    4.8352 H   0  0  0  0  0  0  0  0  0  0  0  0
    7.0266    2.9857    3.7041 H   0  0  0  0  0  0  0  0  0  0  0  0
    6.0152    4.3744    3.3090 H   0  0  0  0  0  0  0  0  0  0  0  0
   -5.5914  -10.7513   -4.7862 H   0  0  0  0  0  0  0  0  0  0  0  0
   -4.6238  -10.1344   -6.1468 H   0  0  0  0  0  0  0  0  0  0  0  0
   -4.8636  -11.8678   -5.9656 H   0  0  0  0  0  0  0  0  0  0  0  0
   -0.9776   -2.3013   -1.2986 H   0  0  0  0  0  0  0  0  0  0  0  0
   -1.3798   -2.2624    0.4048 H   0  0  0  0  0  0  0  0  0  0  0  0
   -2.5833  -11.2092   -5.1887 H   0  0  0  0  0  0  0  0  0  0  0  0
   -3.5491  -11.8251   -3.8227 H   0  0  0  0  0  0  0  0  0  0  0  0
    0.0975   -4.5553   -1.0029 H   0  0  0  0  0  0  0  0  0  0  0  0
   -0.3335   -4.5162    0.7259 H   0  0  0  0  0  0  0  0  0  0  0  0
  1  3  2  0  0  0  0
  1  7  1  0  0  0  0
  1 28  1  0  0  0  0
  2  4  1  0  0  0  0
  2  7  2  0  0  0  0
  2 29  1  0  0  0  0
  3  8  1  0  0  0  0
  3 30  1  0  0  0  0
  4  8  2  0  0  0  0
  4 31  1  0  0  0  0
  5  6  2  0  0  0  0
  5  9  1  0  0  0  0
  5 32  1  0  0  0  0
  6 10  1  0  0  0  0
  6 33  1  0  0  0  0
  7 11  1  0  0  0  0
  8 26  1  0  0  0  0
  9 17  1  0  0  0  0
  9 22  2  0  0  0  0
 10 23  2  0  0  0  0
 10 24  1  0  0  0  0
 11 25  2  0  0  0  0
 11 27  1  0  0  0  0
 12 14  1  0  0  0  0
 12 16  1  0  0  0  0
 12 34  1  0  0  0  0
 12 35  1  0  0  0  0
 13 15  1  0  0  0  0
 13 16  1  0  0  0  0
 13 36  1  0  0  0  0
 13 37  1  0  0  0  0
 14 24  1  0  0  0  0
 14 38  1  0  0  0  0
 14 39  1  0  0  0  0
 15 24  1  0  0  0  0
 15 40  1  0  0  0  0
 15 41  1  0  0  0  0
 16 19  1  0  0  0  0
 16 42  1  0  0  0  0
 17 43  1  0  0  0  0
 17 44  1  0  0  0  0
 17 45  1  0  0  0  0
 18 20  1  0  0  0  0
 18 46  1  0  0  0  0
 18 47  1  0  0  0  0
 18 48  1  0  0  0  0
 19 21  1  0  0  0  0
 19 49  1  0  0  0  0
 19 50  1  0  0  0  0
 20 27  1  0  0  0  0
 20 51  1  0  0  0  0
 20 52  1  0  0  0  0
 21 26  1  0  0  0  0
 21 53  1  0  0  0  0
 21 54  1  0  0  0  0
 22 23  1  0  0  0  0
M  END
$$$$
DrugBank_5923
 OpenBabel01151909533D

 57 59  0  0  0  0  0  0  0  0999 V2000
   -5.6799   -4.2874   -4.0600 C   0  0  0  0  0  0  0  0  0  0  0  0
   -5.0484   -2.8533   -5.8989 C   0  0  0  0  0  0  0  0  0  0  0  0
   -4.8300   -3.5759   -3.2132 C   0  0  0  0  0  0  0  0  0  0  0  0
   -4.1985   -2.1418   -5.0521 C   0  0  0  0  0  0  0  0  0  0  0  0
    4.5563    0.4171    4.5862 C   0  0  0  0  0  0  0  0  0  0  0  0
    3.5218    0.0096    3.7624 C   0  0  0  0  0  0  0  0  0  0  0  0
   -5.7891   -3.9262   -5.4028 C   0  0  0  0  0  0  0  0  0  0  0  0
   -4.0893   -2.5031   -3.7092 C   0  0  0  0  0  0  0  0  0  0  0  0
    5.8395    0.0366    4.2484 C   0  0  0  0  0  0  0  0  0  0  0  0
    3.8391   -0.7512    2.6551 C   0  0  0  0  0  0  0  0  0  0  0  0
   -6.6753   -4.6677   -6.2858 C   0  0  0  0  0  0  0  0  0  0  0  0
    0.5822   -0.7541    0.8179 C   0  0  0  0  0  0  0  0  0  0  0  0
    1.5981   -3.0395    0.7589 C   0  0  0  0  0  0  0  0  0  0  0  0
    1.9451   -0.1602    1.1736 C   0  0  0  0  0  0  0  0  0  0  0  0
    2.9584   -2.4384    1.1089 C   0  0  0  0  0  0  0  0  0  0  0  0
    0.7229   -2.0394   -0.0036 C   0  0  0  0  0  0  0  0  0  0  0  0
    6.9894    0.4508    5.1011 C   0  0  0  0  0  0  0  0  0  0  0  0
   -7.3203   -4.1253   -9.8620 C   0  0  0  0  0  0  0  0  0  0  0  0
   -0.6461   -2.6402   -0.3129 C   0  0  0  0  0  0  0  0  0  0  0  0
   -1.3280   -1.9015   -1.4579 C   0  0  0  0  0  0  0  0  0  0  0  0
   -7.4853   -4.8160   -8.5251 C   0  0  0  0  0  0  0  0  0  0  0  0
   -2.6753   -2.5232   -1.7972 C   0  0  0  0  0  0  0  0  0  0  0  0
    6.1208   -0.7084    3.1585 N   0  0  0  0  0  0  0  0  0  0  0  0
    5.1041   -1.1086    2.3486 N   0  0  0  0  0  0  0  0  0  0  0  0
    2.7916   -1.1659    1.8240 N   0  0  0  0  0  0  0  0  0  0  0  0
   -7.3691   -5.6310   -5.9338 O   0  0  0  0  0  0  0  0  0  0  0  0
   -3.2539   -1.8038   -2.8774 O   0  0  0  0  0  0  0  0  0  0  0  0
   -6.6500   -4.1683   -7.5594 O   0  0  0  0  0  0  0  0  0  0  0  0
   -6.2524   -5.1214   -3.6621 H   0  0  0  0  0  0  0  0  0  0  0  0
   -5.1265   -2.5637   -6.9437 H   0  0  0  0  0  0  0  0  0  0  0  0
   -4.7492   -3.8623   -2.1682 H   0  0  0  0  0  0  0  0  0  0  0  0
   -3.6237   -1.3072   -5.4443 H   0  0  0  0  0  0  0  0  0  0  0  0
    4.3543    1.0145    5.4687 H   0  0  0  0  0  0  0  0  0  0  0  0
    2.4981    0.2863    3.9931 H   0  0  0  0  0  0  0  0  0  0  0  0
    0.0303   -0.9661    1.7432 H   0  0  0  0  0  0  0  0  0  0  0  0
   -0.0022   -0.0119    0.2614 H   0  0  0  0  0  0  0  0  0  0  0  0
    1.7454   -3.9462    0.1604 H   0  0  0  0  0  0  0  0  0  0  0  0
    1.0907   -3.3455    1.6832 H   0  0  0  0  0  0  0  0  0  0  0  0
    2.4376    0.2109    0.2654 H   0  0  0  0  0  0  0  0  0  0  0  0
    1.7912    0.6970    1.8409 H   0  0  0  0  0  0  0  0  0  0  0  0
    3.5090   -3.1544    1.7319 H   0  0  0  0  0  0  0  0  0  0  0  0
    3.5422   -2.2776    0.1933 H   0  0  0  0  0  0  0  0  0  0  0  0
    1.2120   -1.7973   -0.9563 H   0  0  0  0  0  0  0  0  0  0  0  0
    7.1784   -0.2988    5.8798 H   0  0  0  0  0  0  0  0  0  0  0  0
    7.9046    0.5718    4.5064 H   0  0  0  0  0  0  0  0  0  0  0  0
    6.7982    1.4165    5.5880 H   0  0  0  0  0  0  0  0  0  0  0  0
   -7.6132   -3.0737   -9.7967 H   0  0  0  0  0  0  0  0  0  0  0  0
   -6.2805   -4.1824  -10.2003 H   0  0  0  0  0  0  0  0  0  0  0  0
   -7.9313   -4.6153  -10.6274 H   0  0  0  0  0  0  0  0  0  0  0  0
   -0.5186   -3.6962   -0.5689 H   0  0  0  0  0  0  0  0  0  0  0  0
   -1.2645   -2.5921    0.5883 H   0  0  0  0  0  0  0  0  0  0  0  0
   -1.4703   -0.8446   -1.1998 H   0  0  0  0  0  0  0  0  0  0  0  0
   -0.6899   -1.9082   -2.3505 H   0  0  0  0  0  0  0  0  0  0  0  0
   -7.1907   -5.8672   -8.5973 H   0  0  0  0  0  0  0  0  0  0  0  0
   -8.5245   -4.7573   -8.1882 H   0  0  0  0  0  0  0  0  0  0  0  0
   -2.5582   -3.5690   -2.0984 H   0  0  0  0  0  0  0  0  0  0  0  0
   -3.3557   -2.4726   -0.9412 H   0  0  0  0  0  0  0  0  0  0  0  0
  1  3  2  0  0  0  0
  1  7  1  0  0  0  0
  1 29  1  0  0  0  0
  2  4  1  0  0  0  0
  2  7  2  0  0  0  0
  2 30  1  0  0  0  0
  3  8  1  0  0  0  0
  3 31  1  0  0  0  0
  4  8  2  0  0  0  0
  4 32  1  0  0  0  0
  5  6  2  0  0  0  0
  5  9  1  0  0  0  0
  5 33  1  0  0  0  0
  6 10  1  0  0  0  0
  6 34  1  0  0  0  0
  7 11  1  0  0  0  0
  8 27  1  0  0  0  0
  9 17  1  0  0  0  0
  9 23  2  0  0  0  0
 10 24  2  0  0  0  0
 10 25  1  0  0  0  0
 11 26  2  0  0  0  0
 11 28  1  0  0  0  0
 12 14  1  0  0  0  0
 12 16  1  0  0  0  0
 12 35  1  0  0  0  0
 12 36  1  0  0  0  0
 13 15  1  0  0  0  0
 13 16  1  0  0  0  0
 13 37  1  0  0  0  0
 13 38  1  0  0  0  0
 14 25  1  0  0  0  0
 14 39  1  0  0  0  0
 14 40  1  0  0  0  0
 15 25  1  0  0  0  0
 15 41  1  0  0  0  0
 15 42  1  0  0  0  0
 16 19  1  0  0  0  0
 16 43  1  0  0  0  0
 17 44  1  0  0  0  0
 17 45  1  0  0  0  0
 17 46  1  0  0  0  0
 18 21  1  0  0  0  0
 18 47  1  0  0  0  0
 18 48  1  0  0  0  0
 18 49  1  0  0  0  0
 19 20  1  0  0  0  0
 19 50  1  0  0  0  0
 19 51  1  0  0  0  0
 20 22  1  0  0  0  0
 20 52  1  0  0  0  0
 20 53  1  0  0  0  0
 21 28  1  0  0  0  0
 21 54  1  0  0  0  0
 21 55  1  0  0  0  0
 22 27  1  0  0  0  0
 22 56  1  0  0  0  0
 22 57  1  0  0  0  0
 23 24  1  0  0  0  0
M  END
$$$$
DrugBank_5924
 OpenBabel01151909533D

 60 62  0  0  0  0  0  0  0  0999 V2000
   -3.6628   -4.3807   -7.4143 C   0  0  0  0  0  0  0  0  0  0  0  0
   -5.1622   -5.9857   -6.4079 C   0  0  0  0  0  0  0  0  0  0  0  0
   -3.4636   -3.7856   -6.1686 C   0  0  0  0  0  0  0  0  0  0  0  0
   -4.9629   -5.3907   -5.1621 C   0  0  0  0  0  0  0  0  0  0  0  0
    5.9153   -2.2951    3.8395 C   0  0  0  0  0  0  0  0  0  0  0  0
    4.6608   -2.3251    3.2562 C   0  0  0  0  0  0  0  0  0  0  0  0
   -4.5122   -5.4807   -7.5340 C   0  0  0  0  0  0  0  0  0  0  0  0
   -4.1136   -4.2906   -5.0425 C   0  0  0  0  0  0  0  0  0  0  0  0
    6.9917   -1.9670    3.0402 C   0  0  0  0  0  0  0  0  0  0  0  0
    4.5658   -2.0247    1.9122 C   0  0  0  0  0  0  0  0  0  0  0  0
   -4.7199   -6.1014   -8.8327 C   0  0  0  0  0  0  0  0  0  0  0  0
    0.8614   -1.7372    1.4918 C   0  0  0  0  0  0  0  0  0  0  0  0
    1.8457   -2.9866   -0.4392 C   0  0  0  0  0  0  0  0  0  0  0  0
    2.2420   -1.1737    1.8277 C   0  0  0  0  0  0  0  0  0  0  0  0
    3.2216   -2.4151   -0.1012 C   0  0  0  0  0  0  0  0  0  0  0  0
    0.7229   -2.0394   -0.0036 C   0  0  0  0  0  0  0  0  0  0  0  0
    8.3639   -1.9185    3.6196 C   0  0  0  0  0  0  0  0  0  0  0  0
   -6.8280   -8.9897   -9.6770 C   0  0  0  0  0  0  0  0  0  0  0  0
   -0.6461   -2.6402   -0.3129 C   0  0  0  0  0  0  0  0  0  0  0  0
   -0.9770   -2.5282   -1.7985 C   0  0  0  0  0  0  0  0  0  0  0  0
   -2.3326   -3.1590   -2.1092 C   0  0  0  0  0  0  0  0  0  0  0  0
   -5.8649   -7.8589   -9.9694 C   0  0  0  0  0  0  0  0  0  0  0  0
   -2.6565   -3.0918   -3.5949 C   0  0  0  0  0  0  0  0  0  0  0  0
    6.8695   -1.6774    1.7274 N   0  0  0  0  0  0  0  0  0  0  0  0
    5.6364   -1.7065    1.1542 N   0  0  0  0  0  0  0  0  0  0  0  0
    3.2967   -2.0585    1.3221 N   0  0  0  0  0  0  0  0  0  0  0  0
   -4.1861   -5.7220   -9.8835 O   0  0  0  0  0  0  0  0  0  0  0  0
   -3.9182   -3.7060   -3.8182 O   0  0  0  0  0  0  0  0  0  0  0  0
   -5.5804   -7.1620   -8.7517 O   0  0  0  0  0  0  0  0  0  0  0  0
   -3.1507   -3.9787   -8.2847 H   0  0  0  0  0  0  0  0  0  0  0  0
   -5.8258   -6.8426   -6.4905 H   0  0  0  0  0  0  0  0  0  0  0  0
   -2.8009   -2.9289   -6.0818 H   0  0  0  0  0  0  0  0  0  0  0  0
   -5.4723   -5.7883   -4.2885 H   0  0  0  0  0  0  0  0  0  0  0  0
    6.0384   -2.5262    4.8920 H   0  0  0  0  0  0  0  0  0  0  0  0
    3.7884   -2.5797    3.8493 H   0  0  0  0  0  0  0  0  0  0  0  0
    0.6979   -2.6559    2.0706 H   0  0  0  0  0  0  0  0  0  0  0  0
    0.0920   -1.0219    1.8057 H   0  0  0  0  0  0  0  0  0  0  0  0
    1.7856   -3.1734   -1.5179 H   0  0  0  0  0  0  0  0  0  0  0  0
    1.7257   -3.9568    0.0605 H   0  0  0  0  0  0  0  0  0  0  0  0
    2.3523   -0.1734    1.3891 H   0  0  0  0  0  0  0  0  0  0  0  0
    2.3229   -1.0687    2.9169 H   0  0  0  0  0  0  0  0  0  0  0  0
    3.9835   -3.1661   -0.3449 H   0  0  0  0  0  0  0  0  0  0  0  0
    3.4197   -1.5291   -0.7182 H   0  0  0  0  0  0  0  0  0  0  0  0
    0.8171   -1.0996   -0.5635 H   0  0  0  0  0  0  0  0  0  0  0  0
    8.8488   -2.8995    3.5386 H   0  0  0  0  0  0  0  0  0  0  0  0
    8.9898   -1.1784    3.1033 H   0  0  0  0  0  0  0  0  0  0  0  0
    8.3403   -1.6293    4.6788 H   0  0  0  0  0  0  0  0  0  0  0  0
   -6.3950   -9.6963   -8.9635 H   0  0  0  0  0  0  0  0  0  0  0  0
   -7.7655   -8.6016   -9.2656 H   0  0  0  0  0  0  0  0  0  0  0  0
   -7.0823   -9.5273  -10.5965 H   0  0  0  0  0  0  0  0  0  0  0  0
   -1.4029   -2.1203    0.2823 H   0  0  0  0  0  0  0  0  0  0  0  0
   -0.6487   -3.6901   -0.0047 H   0  0  0  0  0  0  0  0  0  0  0  0
   -0.9859   -1.4727   -2.0969 H   0  0  0  0  0  0  0  0  0  0  0  0
   -0.1970   -3.0242   -2.3891 H   0  0  0  0  0  0  0  0  0  0  0  0
   -3.1250   -2.6550   -1.5421 H   0  0  0  0  0  0  0  0  0  0  0  0
   -2.3487   -4.2057   -1.7810 H   0  0  0  0  0  0  0  0  0  0  0  0
   -6.3040   -7.1559  -10.6836 H   0  0  0  0  0  0  0  0  0  0  0  0
   -4.9284   -8.2485  -10.3796 H   0  0  0  0  0  0  0  0  0  0  0  0
   -1.9018   -3.6226   -4.1840 H   0  0  0  0  0  0  0  0  0  0  0  0
   -2.7096   -2.0532   -3.9365 H   0  0  0  0  0  0  0  0  0  0  0  0
  1  3  2  0  0  0  0
  1  7  1  0  0  0  0
  1 30  1  0  0  0  0
  2  4  1  0  0  0  0
  2  7  2  0  0  0  0
  2 31  1  0  0  0  0
  3  8  1  0  0  0  0
  3 32  1  0  0  0  0
  4  8  2  0  0  0  0
  4 33  1  0  0  0  0
  5  6  2  0  0  0  0
  5  9  1  0  0  0  0
  5 34  1  0  0  0  0
  6 10  1  0  0  0  0
  6 35  1  0  0  0  0
  7 11  1  0  0  0  0
  8 28  1  0  0  0  0
  9 17  1  0  0  0  0
  9 24  2  0  0  0  0
 10 25  2  0  0  0  0
 10 26  1  0  0  0  0
 11 27  2  0  0  0  0
 11 29  1  0  0  0  0
 12 14  1  0  0  0  0
 12 16  1  0  0  0  0
 12 36  1  0  0  0  0
 12 37  1  0  0  0  0
 13 15  1  0  0  0  0
 13 16  1  0  0  0  0
 13 38  1  0  0  0  0
 13 39  1  0  0  0  0
 14 26  1  0  0  0  0
 14 40  1  0  0  0  0
 14 41  1  0  0  0  0
 15 26  1  0  0  0  0
 15 42  1  0  0  0  0
 15 43  1  0  0  0  0
 16 19  1  0  0  0  0
 16 44  1  0  0  0  0
 17 45  1  0  0  0  0
 17 46  1  0  0  0  0
 17 47  1  0  0  0  0
 18 22  1  0  0  0  0
 18 48  1  0  0  0  0
 18 49  1  0  0  0  0
 18 50  1  0  0  0  0
 19 20  1  0  0  0  0
 19 51  1  0  0  0  0
 19 52  1  0  0  0  0
 20 21  1  0  0  0  0
 20 53  1  0  0  0  0
 20 54  1  0  0  0  0
 21 23  1  0  0  0  0
 21 55  1  0  0  0  0
 21 56  1  0  0  0  0
 22 29  1  0  0  0  0
 22 57  1  0  0  0  0
 22 58  1  0  0  0  0
 23 28  1  0  0  0  0
 23 59  1  0  0  0  0
 23 60  1  0  0  0  0
 24 25  1  0  0  0  0
M  END
$$$$
DrugBank_5927
 OpenBabel01151909533D

 41 43  0  0  0  0  0  0  0  0999 V2000
    2.8446    2.3770    2.3991 C   0  0  0  0  0  0  0  0  0  0  0  0
    3.3543    2.1166    3.6711 C   0  0  0  0  0  0  0  0  0  0  0  0
    1.9213    1.5030    1.8253 C   0  0  0  0  0  0  0  0  0  0  0  0
   -1.7617   -4.2031   -0.5916 C   0  0  0  0  0  0  0  0  0  0  0  0
   -2.6787   -5.0704   -1.1590 C   0  0  0  0  0  0  0  0  0  0  0  0
    2.0174    0.1080    3.7954 C   0  0  0  0  0  0  0  0  0  0  0  0
    2.9407    0.9821    4.3693 C   0  0  0  0  0  0  0  0  0  0  0  0
    1.5077    0.3685    2.5234 C   0  0  0  0  0  0  0  0  0  0  0  0
   -2.2442   -3.1787    0.1978 C   0  0  0  0  0  0  0  0  0  0  0  0
   -4.0174   -4.8561   -0.8990 C   0  0  0  0  0  0  0  0  0  0  0  0
   -0.4258   -0.0206    1.0109 C   0  0  0  0  0  0  0  0  0  0  0  0
    0.5987   -1.9309    2.2714 C   0  0  0  0  0  0  0  0  0  0  0  0
   -1.6703   -0.9121    1.0404 C   0  0  0  0  0  0  0  0  0  0  0  0
    0.0265   -2.7567    1.1159 C   0  0  0  0  0  0  0  0  0  0  0  0
    3.4864    0.7036    5.7289 C   0  0  0  0  0  0  0  0  0  0  0  0
   -6.3175   -5.4135   -1.1321 C   0  0  0  0  0  0  0  0  0  0  0  0
   -3.5599   -2.9927    0.4352 N   0  0  0  0  0  0  0  0  0  0  0  0
   -4.4611   -3.8453   -0.1221 N   0  0  0  0  0  0  0  0  0  0  0  0
    0.5857   -0.5037    1.9508 N   0  0  0  0  0  0  0  0  0  0  0  0
   -1.3213   -2.3063    0.7687 N   0  0  0  0  0  0  0  0  0  0  0  0
   -4.9557   -5.6913   -1.4404 O   0  0  0  0  0  0  0  0  0  0  0  0
    3.1667    3.2606    1.8554 H   0  0  0  0  0  0  0  0  0  0  0  0
    4.0735    2.8032    4.1105 H   0  0  0  0  0  0  0  0  0  0  0  0
    1.5303    1.7157    0.8335 H   0  0  0  0  0  0  0  0  0  0  0  0
   -0.6998   -4.3365   -0.7704 H   0  0  0  0  0  0  0  0  0  0  0  0
   -2.3490   -5.8906   -1.7873 H   0  0  0  0  0  0  0  0  0  0  0  0
    1.6958   -0.7760    4.3413 H   0  0  0  0  0  0  0  0  0  0  0  0
    0.0089   -0.0200    0.0036 H   0  0  0  0  0  0  0  0  0  0  0  0
   -0.7176    1.0129    1.2357 H   0  0  0  0  0  0  0  0  0  0  0  0
    0.0062   -2.1083    3.1783 H   0  0  0  0  0  0  0  0  0  0  0  0
    1.6252   -2.2586    2.4745 H   0  0  0  0  0  0  0  0  0  0  0  0
   -2.1501   -0.8386    2.0252 H   0  0  0  0  0  0  0  0  0  0  0  0
   -2.3881   -0.5544    0.2926 H   0  0  0  0  0  0  0  0  0  0  0  0
    0.6657   -2.6511    0.2307 H   0  0  0  0  0  0  0  0  0  0  0  0
    0.0340   -3.8184    1.3928 H   0  0  0  0  0  0  0  0  0  0  0  0
    2.8568    1.1706    6.4962 H   0  0  0  0  0  0  0  0  0  0  0  0
    3.5329   -0.3753    5.9264 H   0  0  0  0  0  0  0  0  0  0  0  0
    4.5085    1.0901    5.8349 H   0  0  0  0  0  0  0  0  0  0  0  0
   -6.9603   -6.1486   -1.6226 H   0  0  0  0  0  0  0  0  0  0  0  0
   -6.5712   -4.4067   -1.4732 H   0  0  0  0  0  0  0  0  0  0  0  0
   -6.4568   -5.4754   -0.0502 H   0  0  0  0  0  0  0  0  0  0  0  0
  1  2  2  0  0  0  0
  1  3  1  0  0  0  0
  1 22  1  0  0  0  0
  2  7  1  0  0  0  0
  2 23  1  0  0  0  0
  3  8  2  0  0  0  0
  3 24  1  0  0  0  0
  4  5  2  0  0  0  0
  4  9  1  0  0  0  0
  4 25  1  0  0  0  0
  5 10  1  0  0  0  0
  5 26  1  0  0  0  0
  6  7  2  0  0  0  0
  6  8  1  0  0  0  0
  6 27  1  0  0  0  0
  7 15  1  0  0  0  0
  8 19  1  0  0  0  0
  9 17  2  0  0  0  0
  9 20  1  0  0  0  0
 10 18  2  0  0  0  0
 10 21  1  0  0  0  0
 11 13  1  0  0  0  0
 11 19  1  0  0  0  0
 11 28  1  0  0  0  0
 11 29  1  0  0  0  0
 12 14  1  0  0  0  0
 12 19  1  0  0  0  0
 12 30  1  0  0  0  0
 12 31  1  0  0  0  0
 13 20  1  0  0  0  0
 13 32  1  0  0  0  0
 13 33  1  0  0  0  0
 14 20  1  0  0  0  0
 14 34  1  0  0  0  0
 14 35  1  0  0  0  0
 15 36  1  0  0  0  0
 15 37  1  0  0  0  0
 15 38  1  0  0  0  0
 16 21  1  0  0  0  0
 16 39  1  0  0  0  0
 16 40  1  0  0  0  0
 16 41  1  0  0  0  0
 17 18  1  0  0  0  0
M  END
$$$$
DrugBank_3461
 OpenBabel01151909533D

 15 15  0  0  0  0  0  0  0  0999 V2000
    1.8851   -1.0363   -0.1124 C   0  0  0  0  0  0  0  0  0  0  0  0
    0.8066   -0.4630    0.5610 C   0  0  0  0  0  0  0  0  0  0  0  0
    2.9210   -1.6309    0.6081 C   0  0  0  0  0  0  0  0  0  0  0  0
    0.7638   -0.4841    1.9551 C   0  0  0  0  0  0  0  0  0  0  0  0
    2.8783   -1.6520    2.0022 C   0  0  0  0  0  0  0  0  0  0  0  0
    1.7997   -1.0786    2.6757 C   0  0  0  0  0  0  0  0  0  0  0  0
    0.4746   -0.4171    4.8805 O   0  0  0  0  0  0  0  0  0  0  0  0
    2.9388   -0.0356    4.6172 O   0  0  0  0  0  0  0  0  0  0  0  0
    1.7453   -1.1054    4.4678 S   0  0  2  0  0  0  0  0  0  0  0  0
    1.9189   -1.0203   -1.1981 H   0  0  0  0  0  0  0  0  0  0  0  0
   -0.0004   -0.0008   -0.0000 H   0  0  0  0  0  0  0  0  0  0  0  0
    3.7605   -2.0768    0.0829 H   0  0  0  0  0  0  0  0  0  0  0  0
   -0.0837   -0.0334    2.4652 H   0  0  0  0  0  0  0  0  0  0  0  0
    3.6938   -2.1183    2.5493 H   0  0  0  0  0  0  0  0  0  0  0  0
    3.0122    0.2765    5.5496 H   0  0  0  0  0  0  0  0  0  0  0  0
  1  2  2  0  0  0  0
  1  3  1  0  0  0  0
  1 10  1  0  0  0  0
  2  4  1  0  0  0  0
  2 11  1  0  0  0  0
  3  5  2  0  0  0  0
  3 12  1  0  0  0  0
  4  6  2  0  0  0  0
  4 13  1  0  0  0  0
  5  6  1  0  0  0  0
  5 14  1  0  0  0  0
  6  9  1  0  0  0  0
  8  9  1  0  0  0  0
  8 15  1  0  0  0  0
  9  7  2  6  0  0  0
M  END
$$$$
DrugBank_764
 OpenBabel01151909533D

 23 24  0  0  0  0  0  0  0  0999 V2000
    3.0629   -1.1229    0.9756 C   0  0  0  0  0  0  0  0  0  0  0  0
    0.7229   -0.0138    2.0270 C   0  0  0  0  0  0  0  0  0  0  0  0
    2.9778   -0.8953    2.3539 C   0  0  0  0  0  0  0  0  0  0  0  0
    1.7979   -0.3401    2.8543 C   0  0  0  0  0  0  0  0  0  0  0  0
    0.8272   -0.2479    0.6586 C   0  0  0  0  0  0  0  0  0  0  0  0
    1.9947   -0.8014    0.1331 C   0  0  0  0  0  0  0  0  0  0  0  0
    3.9892   -1.0045    4.5472 C   0  0  0  0  0  0  0  0  0  0  0  0
    3.0449   -0.5139    5.2790 N   0  0  0  0  0  0  0  0  0  0  0  0
    4.0449   -1.2162    3.1976 N   0  0  0  0  0  0  0  0  0  0  0  0
   -1.4216   -1.2892   -0.3229 N   0  0  0  0  0  0  0  0  0  0  0  0
    1.5274    1.4063    4.7197 O   0  0  0  0  0  0  0  0  0  0  0  0
    0.5763   -0.9063    5.0432 O   0  0  0  0  0  0  0  0  0  0  0  0
   -1.3081    1.2027    0.3275 O   0  0  0  0  0  0  0  0  0  0  0  0
   -0.0539    0.4007   -1.7051 O   0  0  0  0  0  0  0  0  0  0  0  0
    1.6453   -0.0349    4.5901 S   0  0  0  0  0  0  0  0  0  0  0  0
   -0.5398    0.1727   -0.3535 S   0  0  0  0  0  0  0  0  0  0  0  0
    2.1718   -1.1109   -1.5575 Cl  0  0  0  0  0  0  0  0  0  0  0  0
    3.9722   -1.5545    0.5607 H   0  0  0  0  0  0  0  0  0  0  0  0
   -0.1830    0.4173    2.4443 H   0  0  0  0  0  0  0  0  0  0  0  0
    4.9225   -1.3186    5.0417 H   0  0  0  0  0  0  0  0  0  0  0  0
    4.8738   -1.6168    2.7728 H   0  0  0  0  0  0  0  0  0  0  0  0
   -2.3002   -1.3099    0.2092 H   0  0  0  0  0  0  0  0  0  0  0  0
   -1.4411   -1.8572   -1.1787 H   0  0  0  0  0  0  0  0  0  0  0  0
  1  3  2  0  0  0  0
  1  6  1  0  0  0  0
  1 18  1  0  0  0  0
  2  4  2  0  0  0  0
  2  5  1  0  0  0  0
  2 19  1  0  0  0  0
  3  4  1  0  0  0  0
  3  9  1  0  0  0  0
  4 15  1  0  0  0  0
  5  6  2  0  0  0  0
  5 16  1  0  0  0  0
  6 17  1  0  0  0  0
  7  8  2  0  0  0  0
  7  9  1  0  0  0  0
  7 20  1  0  0  0  0
  8 15  1  0  0  0  0
  9 21  1  0  0  0  0
 10 16  1  0  0  0  0
 10 22  1  0  0  0  0
 10 23  1  0  0  0  0
 11 15  2  0  0  0  0
 12 15  2  0  0  0  0
 13 16  2  0  0  0  0
 14 16  2  0  0  0  0
M  END
$$$$
DrugBank_3479
 OpenBabel01151909533D

 58 59  0  0  1  0  0  0  0  0999 V2000
    2.1190   -0.5630   -2.3922 C   0  0  0  0  0  0  0  0  0  0  0  0
    0.9985   -0.9074   -3.0435 C   0  0  0  0  0  0  0  0  0  0  0  0
    6.4629   -1.7210   -4.2674 C   0  0  0  0  0  0  0  0  0  0  0  0
    6.7203   -3.0217   -4.0621 C   0  0  0  0  0  0  0  0  0  0  0  0
    4.9409   -6.5210   -0.8196 C   0  0  0  0  0  0  0  0  0  0  0  0
    4.5851    1.1293   -1.2207 C   0  0  0  0  0  0  0  0  0  0  0  0
    3.2461    0.1889   -3.0185 C   0  0  2  0  0  0  0  0  0  0  0  0
    4.6012   -0.5627   -2.9109 C   0  0  2  0  0  0  0  0  0  0  0  0
    3.5751    1.5028   -2.2816 C   0  0  2  0  0  0  0  0  0  0  0  0
    5.4961    0.5002   -2.2483 C   0  0  1  0  0  0  0  0  0  0  0  0
    1.2040   -7.3875   -4.9928 C   0  0  0  0  0  0  0  0  0  0  0  0
    5.1179   -1.0483   -4.2585 C   0  0  0  0  0  0  0  0  0  0  0  0
    5.6587   -4.0449   -3.7805 C   0  0  0  0  0  0  0  0  0  0  0  0
    4.7567   -5.8095   -2.1424 C   0  0  0  0  0  0  0  0  0  0  0  0
    1.5667   -6.1602   -4.1704 C   0  0  0  0  0  0  0  0  0  0  0  0
    5.8252   -4.7495   -2.4271 C   0  0  0  0  0  0  0  0  0  0  0  0
    0.3994   -5.1753   -4.0949 C   0  0  0  0  0  0  0  0  0  0  0  0
    0.7164   -3.9137   -3.2852 C   0  0  0  0  0  0  0  0  0  0  0  0
   -0.4764   -2.9623   -3.1518 C   0  0  0  0  0  0  0  0  0  0  0  0
   -0.1347   -1.6636   -2.4086 C   0  0  2  0  0  0  0  0  0  0  0  0
    5.8410   -6.3067   -0.0194 O   0  0  0  0  0  0  0  0  0  0  0  0
    4.3842    2.2829   -3.1837 O   0  0  0  0  0  0  0  0  0  0  0  0
    5.6923    1.5826   -3.1744 O   0  0  0  0  0  0  0  0  0  0  0  0
    3.9972   -7.4798   -0.6296 O   0  0  0  0  0  0  0  0  0  0  0  0
   -1.1325    0.0777   -1.3206 O   0  0  0  0  0  0  0  0  0  0  0  0
   -1.2989   -0.8357   -2.4359 O   0  0  0  0  0  0  0  0  0  0  0  0
    2.2364   -0.8336   -1.3462 H   0  0  0  0  0  0  0  0  0  0  0  0
    0.8849   -0.6347   -4.0901 H   0  0  0  0  0  0  0  0  0  0  0  0
    7.3008   -1.0571   -4.4730 H   0  0  0  0  0  0  0  0  0  0  0  0
    7.7412   -3.3904   -4.0974 H   0  0  0  0  0  0  0  0  0  0  0  0
    5.0376    2.0107   -0.7548 H   0  0  0  0  0  0  0  0  0  0  0  0
    4.2124    0.4364   -0.4618 H   0  0  0  0  0  0  0  0  0  0  0  0
    2.9921    0.3956   -4.0659 H   0  0  0  0  0  0  0  0  0  0  0  0
    4.5168   -1.4256   -2.2368 H   0  0  0  0  0  0  0  0  0  0  0  0
    2.7170    2.0832   -1.9349 H   0  0  0  0  0  0  0  0  0  0  0  0
    6.4499    0.1273   -1.8696 H   0  0  0  0  0  0  0  0  0  0  0  0
    0.3309   -7.8875   -4.5620 H   0  0  0  0  0  0  0  0  0  0  0  0
    0.9621   -7.1116   -6.0241 H   0  0  0  0  0  0  0  0  0  0  0  0
    2.0309   -8.1045   -5.0131 H   0  0  0  0  0  0  0  0  0  0  0  0
    5.1607   -0.1944   -4.9452 H   0  0  0  0  0  0  0  0  0  0  0  0
    4.3872   -1.7515   -4.6762 H   0  0  0  0  0  0  0  0  0  0  0  0
    5.7041   -4.8009   -4.5742 H   0  0  0  0  0  0  0  0  0  0  0  0
    4.6579   -3.5993   -3.8387 H   0  0  0  0  0  0  0  0  0  0  0  0
    4.8045   -6.5818   -2.9191 H   0  0  0  0  0  0  0  0  0  0  0  0
    3.7631   -5.3492   -2.1780 H   0  0  0  0  0  0  0  0  0  0  0  0
    2.4412   -5.6821   -4.6242 H   0  0  0  0  0  0  0  0  0  0  0  0
    1.8538   -6.4766   -3.1611 H   0  0  0  0  0  0  0  0  0  0  0  0
    6.8006   -5.2524   -2.4405 H   0  0  0  0  0  0  0  0  0  0  0  0
    5.8691   -4.0092   -1.6191 H   0  0  0  0  0  0  0  0  0  0  0  0
   -0.4579   -5.6742   -3.6258 H   0  0  0  0  0  0  0  0  0  0  0  0
    0.0846   -4.8938   -5.1071 H   0  0  0  0  0  0  0  0  0  0  0  0
    1.5613   -3.3857   -3.7438 H   0  0  0  0  0  0  0  0  0  0  0  0
    1.0452   -4.2319   -2.2890 H   0  0  0  0  0  0  0  0  0  0  0  0
   -1.3077   -3.4726   -2.6472 H   0  0  0  0  0  0  0  0  0  0  0  0
   -0.8567   -2.6955   -4.1453 H   0  0  0  0  0  0  0  0  0  0  0  0
    0.0759   -1.8919   -1.3571 H   0  0  0  0  0  0  0  0  0  0  0  0
    3.3278   -7.5547   -1.3430 H   0  0  0  0  0  0  0  0  0  0  0  0
   -1.9662    0.5582   -1.4613 H   0  0  0  0  0  0  0  0  0  0  0  0
  1  2  2  0  0  0  0
  1  7  1  0  0  0  0
  1 27  1  0  0  0  0
  2 20  1  0  0  0  0
  2 28  1  0  0  0  0
  3  4  2  0  0  0  0
  3 12  1  0  0  0  0
  3 29  1  0  0  0  0
  4 13  1  0  0  0  0
  4 30  1  0  0  0  0
  5 14  1  0  0  0  0
  5 21  2  0  0  0  0
  5 24  1  0  0  0  0
  6  9  1  0  0  0  0
  6 10  1  0  0  0  0
  6 31  1  0  0  0  0
  6 32  1  0  0  0  0
  7  8  1  1  0  0  0
  7 33  1  0  0  0  0
  8 10  1  1  0  0  0
  8 12  1  0  0  0  0
  8 34  1  0  0  0  0
  9  7  1  6  0  0  0
  9 22  1  0  0  0  0
  9 35  1  0  0  0  0
 10 23  1  0  0  0  0
 10 36  1  1  0  0  0
 11 15  1  0  0  0  0
 11 37  1  0  0  0  0
 11 38  1  0  0  0  0
 11 39  1  0  0  0  0
 12 40  1  0  0  0  0
 12 41  1  0  0  0  0
 13 16  1  0  0  0  0
 13 42  1  0  0  0  0
 13 43  1  0  0  0  0
 14 16  1  0  0  0  0
 14 44  1  0  0  0  0
 14 45  1  0  0  0  0
 15 17  1  0  0  0  0
 15 46  1  0  0  0  0
 15 47  1  0  0  0  0
 16 48  1  0  0  0  0
 16 49  1  0  0  0  0
 17 18  1  0  0  0  0
 17 50  1  0  0  0  0
 17 51  1  0  0  0  0
 18 19  1  0  0  0  0
 18 52  1  0  0  0  0
 18 53  1  0  0  0  0
 19 20  1  0  0  0  0
 19 54  1  0  0  0  0
 19 55  1  0  0  0  0
 20 26  1  0  0  0  0
 20 56  1  1  0  0  0
 22 23  1  0  0  0  0
 24 57  1  0  0  0  0
 25 26  1  0  0  0  0
 25 58  1  0  0  0  0
M  END
$$$$
DrugBank_3482
 OpenBabel01151909533D

 48 50  0  0  1  0  0  0  0  0999 V2000
    1.1183   -0.5184    5.1349 C   0  0  0  0  0  0  0  0  0  0  0  0
   -2.1322   -0.1230    2.2690 C   0  0  0  0  0  0  0  0  0  0  0  0
   -1.2345   -0.9935    3.9951 C   0  0  0  0  0  0  0  0  0  0  0  0
   -0.3236   -0.0630    3.5209 C   0  0  0  0  0  0  0  0  0  0  0  0
   -0.8714   -1.7051    5.1342 C   0  0  0  0  0  0  0  0  0  0  0  0
   -5.6455    5.8618    1.0372 C   0  0  0  0  0  0  0  0  0  0  0  0
    0.1385    2.0525   -0.6912 C   0  0  2  0  0  0  0  0  0  0  0  0
    0.3852    0.9698    0.3367 C   0  0  2  0  0  0  0  0  0  0  0  0
   -1.2921    2.4556   -0.3738 C   0  0  2  0  0  0  0  0  0  0  0  0
   -0.3571    1.5191    1.5483 C   0  0  2  0  0  0  0  0  0  0  0  0
   -1.6307    3.8699   -0.8096 C   0  0  0  0  0  0  0  0  0  0  0  0
   -7.4092    4.2628    1.7938 C   0  0  0  0  0  0  0  0  0  0  0  0
   -7.1372    5.6700    1.2698 C   0  0  1  0  0  0  0  0  0  0  0  0
    0.8782    0.2328    4.0381 N   0  0  0  0  0  0  0  0  0  0  0  0
    0.3297   -1.4580    5.7103 N   0  0  0  0  0  0  0  0  0  0  0  0
   -2.3567   -1.0206    3.2058 N   0  0  0  0  0  0  0  0  0  0  0  0
   -0.9134    0.4840    2.4171 N   0  0  0  0  0  0  0  0  0  0  0  0
   -1.7341   -2.6687    5.6840 N   0  0  0  0  0  0  0  0  0  0  0  0
   -7.5560    6.6803    2.2393 N   0  0  0  0  0  0  0  0  0  0  0  0
   -5.2226    5.5050   -0.2848 N   0  0  0  0  0  0  0  0  0  0  0  0
   -4.8719    6.2568    1.9036 O   0  0  0  0  0  0  0  0  0  0  0  0
   -2.9123    6.6086   -0.0501 O   0  0  0  0  0  0  0  0  0  0  0  0
   -3.6513    5.7323   -2.2915 O   0  0  0  0  0  0  0  0  0  0  0  0
   -1.4267    2.3479    1.0536 O   0  0  0  0  0  0  0  0  0  0  0  0
    0.2665    1.5431   -2.0049 O   0  0  0  0  0  0  0  0  0  0  0  0
    1.7661    0.8230    0.6176 O   0  0  0  0  0  0  0  0  0  0  0  0
   -7.4021    3.3477    0.7033 O   0  0  0  0  0  0  0  0  0  0  0  0
   -2.9840    4.1437   -0.4801 O   0  0  0  0  0  0  0  0  0  0  0  0
   -3.6062    5.6118   -0.8455 S   0  0  0  0  0  0  0  0  0  0  0  0
    2.0720   -0.3463    5.6224 H   0  0  0  0  0  0  0  0  0  0  0  0
   -2.8087    0.1287    1.4637 H   0  0  0  0  0  0  0  0  0  0  0  0
    0.8479    2.8789   -0.5638 H   0  0  0  0  0  0  0  0  0  0  0  0
   -0.0037    0.0013    0.0010 H   0  0  0  0  0  0  0  0  0  0  0  0
   -2.0065    1.7626   -0.8333 H   0  0  0  0  0  0  0  0  0  0  0  0
    0.2955    2.1397    2.1996 H   0  0  0  0  0  0  0  0  0  0  0  0
   -1.5021    3.9795   -1.8905 H   0  0  0  0  0  0  0  0  0  0  0  0
   -0.9898    4.5934   -0.2971 H   0  0  0  0  0  0  0  0  0  0  0  0
   -6.6518    3.9435    2.5184 H   0  0  0  0  0  0  0  0  0  0  0  0
   -8.3959    4.2046    2.2661 H   0  0  0  0  0  0  0  0  0  0  0  0
   -7.6708    5.8430    0.3284 H   0  0  0  0  0  0  0  0  0  0  0  0
   -2.6392   -2.8096    5.2767 H   0  0  0  0  0  0  0  0  0  0  0  0
   -1.4740   -3.1365    6.5315 H   0  0  0  0  0  0  0  0  0  0  0  0
   -8.3974    6.5199    2.7484 H   0  0  0  0  0  0  0  0  0  0  0  0
   -7.1083    7.5701    2.2107 H   0  0  0  0  0  0  0  0  0  0  0  0
   -5.9362    5.1621   -0.9407 H   0  0  0  0  0  0  0  0  0  0  0  0
    0.0978    2.2810   -2.6159 H   0  0  0  0  0  0  0  0  0  0  0  0
    1.8486    0.1163    1.2803 H   0  0  0  0  0  0  0  0  0  0  0  0
   -7.5777    2.4696    1.0764 H   0  0  0  0  0  0  0  0  0  0  0  0
  1 14  2  0  0  0  0
  1 15  1  0  0  0  0
  1 30  1  0  0  0  0
  2 16  2  0  0  0  0
  2 17  1  0  0  0  0
  2 31  1  0  0  0  0
  3  4  2  0  0  0  0
  3  5  1  0  0  0  0
  3 16  1  0  0  0  0
  4 14  1  0  0  0  0
  4 17  1  0  0  0  0
  5 15  2  0  0  0  0
  5 18  1  0  0  0  0
  6 13  1  0  0  0  0
  6 20  1  0  0  0  0
  6 21  2  0  0  0  0
  7  8  1  1  0  0  0
  7 25  1  0  0  0  0
  7 32  1  0  0  0  0
  8 10  1  1  0  0  0
  8 26  1  0  0  0  0
  8 33  1  0  0  0  0
  9  7  1  6  0  0  0
  9 11  1  0  0  0  0
  9 24  1  0  0  0  0
  9 34  1  0  0  0  0
 10 17  1  0  0  0  0
 10 24  1  0  0  0  0
 10 35  1  1  0  0  0
 11 28  1  0  0  0  0
 11 36  1  0  0  0  0
 11 37  1  0  0  0  0
 12 13  1  0  0  0  0
 12 27  1  0  0  0  0
 12 38  1  0  0  0  0
 12 39  1  0  0  0  0
 13 19  1  0  0  0  0
 13 40  1  6  0  0  0
 18 41  1  0  0  0  0
 18 42  1  0  0  0  0
 19 43  1  0  0  0  0
 19 44  1  0  0  0  0
 20 29  1  0  0  0  0
 20 45  1  0  0  0  0
 22 29  2  0  0  0  0
 23 29  2  0  0  0  0
 25 46  1  0  0  0  0
 26 47  1  0  0  0  0
 27 48  1  0  0  0  0
 28 29  1  0  0  0  0
M  END
$$$$
DrugBank_794
 OpenBabel01151909533D

 29 29  0  0  0  0  0  0  0  0999 V2000
    1.4523    0.4536   -3.9275 C   0  0  0  0  0  0  0  0  0  0  0  0
    1.9750    0.5486   -2.6594 C   0  0  0  0  0  0  0  0  0  0  0  0
   -0.2110    0.2736   -2.6117 C   0  0  0  0  0  0  0  0  0  0  0  0
   -1.5645    0.1159   -2.0412 C   0  0  0  0  0  0  0  0  0  0  0  0
    1.4440    3.8353    3.8468 C   0  0  0  0  0  0  0  0  0  0  0  0
    0.9198    0.4688   -0.3684 C   0  0  0  0  0  0  0  0  0  0  0  0
    1.3572    3.6094    2.3540 C   0  0  0  0  0  0  0  0  0  0  0  0
    1.0874    1.8698    0.2024 C   0  0  0  0  0  0  0  0  0  0  0  0
    0.0911    0.2828   -3.8910 N   0  0  0  0  0  0  0  0  0  0  0  0
    0.8975    0.4320   -1.8272 N   0  0  0  0  0  0  0  0  0  0  0  0
    3.2884    0.7247   -2.2107 N   0  0  0  0  0  0  0  0  0  0  0  0
    4.2311    0.8246   -3.0483 O   0  0  0  0  0  0  0  0  0  0  0  0
    3.5265    0.7833   -0.9696 O   0  0  0  0  0  0  0  0  0  0  0  0
   -0.1269    1.4613    2.4808 O   0  0  0  0  0  0  0  0  0  0  0  0
    2.3820    1.2049    2.3736 O   0  0  0  0  0  0  0  0  0  0  0  0
    1.1643    1.8847    1.9655 S   0  0  0  0  0  0  0  0  0  0  0  0
    1.9835    0.4988   -4.8678 H   0  0  0  0  0  0  0  0  0  0  0  0
   -1.7989   -0.9463   -1.8652 H   0  0  0  0  0  0  0  0  0  0  0  0
   -1.6719    0.6474   -1.0808 H   0  0  0  0  0  0  0  0  0  0  0  0
   -2.3429    0.5263   -2.7063 H   0  0  0  0  0  0  0  0  0  0  0  0
    0.5310    3.4889    4.3399 H   0  0  0  0  0  0  0  0  0  0  0  0
    2.2931    3.2939    4.2768 H   0  0  0  0  0  0  0  0  0  0  0  0
    1.5764    4.8976    4.0761 H   0  0  0  0  0  0  0  0  0  0  0  0
    1.7549   -0.1678   -0.0519 H   0  0  0  0  0  0  0  0  0  0  0  0
    0.0000    0.0000    0.0000 H   0  0  0  0  0  0  0  0  0  0  0  0
    2.2662    3.9529    1.8526 H   0  0  0  0  0  0  0  0  0  0  0  0
    0.4976    4.1339    1.9280 H   0  0  0  0  0  0  0  0  0  0  0  0
    2.0297    2.3046   -0.1453 H   0  0  0  0  0  0  0  0  0  0  0  0
    0.2699    2.5364   -0.0875 H   0  0  0  0  0  0  0  0  0  0  0  0
  1  2  2  0  0  0  0
  1  9  1  0  0  0  0
  1 17  1  0  0  0  0
  2 10  1  0  0  0  0
  2 11  1  0  0  0  0
  3  4  1  0  0  0  0
  3  9  2  0  0  0  0
  3 10  1  0  0  0  0
  4 18  1  0  0  0  0
  4 19  1  0  0  0  0
  4 20  1  0  0  0  0
  5  7  1  0  0  0  0
  5 21  1  0  0  0  0
  5 22  1  0  0  0  0
  5 23  1  0  0  0  0
  6  8  1  0  0  0  0
  6 10  1  0  0  0  0
  6 24  1  0  0  0  0
  6 25  1  0  0  0  0
  7 16  1  0  0  0  0
  7 26  1  0  0  0  0
  7 27  1  0  0  0  0
  8 16  1  0  0  0  0
  8 28  1  0  0  0  0
  8 29  1  0  0  0  0
 11 12  1  0  0  0  0
 11 13  2  0  0  0  0
 14 16  2  0  0  0  0
 15 16  2  0  0  0  0
M  END
$$$$
DrugBank_801
 OpenBabel01151909533D

 48 50  0  0  0  0  0  0  0  0999 V2000
   -0.1270   -0.3282    1.1151 C   0  0  0  0  0  0  0  0  0  0  0  0
    0.0246   -0.9615   -0.1218 C   0  0  0  0  0  0  0  0  0  0  0  0
   -2.3998   -1.1570    1.3260 C   0  0  0  0  0  0  0  0  0  0  0  0
   -2.4480   -2.9653   -1.8502 C   0  0  0  0  0  0  0  0  0  0  0  0
   -2.2704   -1.8041    0.0811 C   0  0  0  0  0  0  0  0  0  0  0  0
   -1.3196   -0.4230    1.8295 C   0  0  0  0  0  0  0  0  0  0  0  0
   -3.1342   -2.6106   -0.7116 C   0  0  0  0  0  0  0  0  0  0  0  0
   -1.0636   -1.6917   -0.6127 C   0  0  0  0  0  0  0  0  0  0  0  0
   -1.3031    2.3317    6.3356 C   0  0  0  0  0  0  0  0  0  0  0  0
   -2.5862    1.8026    6.9461 C   0  0  0  0  0  0  0  0  0  0  0  0
   -0.5138    1.0663    6.0276 C   0  0  0  0  0  0  0  0  0  0  0  0
   -2.8857    0.5912    6.0774 C   0  0  0  0  0  0  0  0  0  0  0  0
   -7.9000   -1.4625   -0.8941 C   0  0  0  0  0  0  0  0  0  0  0  0
   -7.0920   -2.2740    1.2180 C   0  0  0  0  0  0  0  0  0  0  0  0
   -4.5194   -3.0023   -0.3817 C   0  0  0  0  0  0  0  0  0  0  0  0
   -1.4493    0.2679    3.1519 C   0  0  0  0  0  0  0  0  0  0  0  0
   -5.5543   -1.8809   -0.5858 C   0  0  0  0  0  0  0  0  0  0  0  0
   -1.2000   -2.4066   -1.7813 N   0  0  0  0  0  0  0  0  0  0  0  0
   -1.5438    0.0122    5.7932 N   0  0  0  0  0  0  0  0  0  0  0  0
   -6.8851   -2.3014   -0.2381 N   0  0  0  0  0  0  0  0  0  0  0  0
   -2.5638   -1.8055    4.2858 O   0  0  0  0  0  0  0  0  0  0  0  0
   -0.0520   -1.5534    4.4002 O   0  0  0  0  0  0  0  0  0  0  0  0
   -1.3822   -0.9742    4.4201 S   0  0  0  0  0  0  0  0  0  0  0  0
    0.7057    0.2446    1.5173 H   0  0  0  0  0  0  0  0  0  0  0  0
    0.9533   -0.8869   -0.6774 H   0  0  0  0  0  0  0  0  0  0  0  0
   -3.3272   -1.2271    1.8884 H   0  0  0  0  0  0  0  0  0  0  0  0
   -2.7343   -3.5643   -2.7036 H   0  0  0  0  0  0  0  0  0  0  0  0
   -1.5248    2.8710    5.4067 H   0  0  0  0  0  0  0  0  0  0  0  0
   -0.7620    3.0093    7.0018 H   0  0  0  0  0  0  0  0  0  0  0  0
   -2.4116    1.4943    7.9839 H   0  0  0  0  0  0  0  0  0  0  0  0
   -3.3966    2.5364    6.9352 H   0  0  0  0  0  0  0  0  0  0  0  0
    0.1393    1.2085    5.1617 H   0  0  0  0  0  0  0  0  0  0  0  0
    0.0972    0.7636    6.8845 H   0  0  0  0  0  0  0  0  0  0  0  0
   -3.5187   -0.1333    6.5962 H   0  0  0  0  0  0  0  0  0  0  0  0
   -3.3682    0.8995    5.1433 H   0  0  0  0  0  0  0  0  0  0  0  0
   -7.7553   -1.4759   -1.9775 H   0  0  0  0  0  0  0  0  0  0  0  0
   -7.8227   -0.4305   -0.5415 H   0  0  0  0  0  0  0  0  0  0  0  0
   -8.9024   -1.8359   -0.6683 H   0  0  0  0  0  0  0  0  0  0  0  0
   -6.3424   -2.8947    1.7157 H   0  0  0  0  0  0  0  0  0  0  0  0
   -8.0861   -2.6559    1.4658 H   0  0  0  0  0  0  0  0  0  0  0  0
   -7.0063   -1.2504    1.5927 H   0  0  0  0  0  0  0  0  0  0  0  0
   -4.5800   -3.3316    0.6745 H   0  0  0  0  0  0  0  0  0  0  0  0
   -4.8381   -3.8884   -0.9670 H   0  0  0  0  0  0  0  0  0  0  0  0
   -2.4006    0.7992    3.2451 H   0  0  0  0  0  0  0  0  0  0  0  0
   -0.6345    0.9765    3.3256 H   0  0  0  0  0  0  0  0  0  0  0  0
   -5.3230   -1.0144    0.0418 H   0  0  0  0  0  0  0  0  0  0  0  0
   -5.5743   -1.5508   -1.6296 H   0  0  0  0  0  0  0  0  0  0  0  0
   -0.4823   -2.5039   -2.4861 H   0  0  0  0  0  0  0  0  0  0  0  0
  1  2  2  0  0  0  0
  1  6  1  0  0  0  0
  1 24  1  0  0  0  0
  2  8  1  0  0  0  0
  2 25  1  0  0  0  0
  3  5  1  0  0  0  0
  3  6  2  0  0  0  0
  3 26  1  0  0  0  0
  4  7  2  0  0  0  0
  4 18  1  0  0  0  0
  4 27  1  0  0  0  0
  5  7  1  0  0  0  0
  5  8  2  0  0  0  0
  6 16  1  0  0  0  0
  7 15  1  0  0  0  0
  8 18  1  0  0  0  0
  9 10  1  0  0  0  0
  9 11  1  0  0  0  0
  9 28  1  0  0  0  0
  9 29  1  0  0  0  0
 10 12  1  0  0  0  0
 10 30  1  0  0  0  0
 10 31  1  0  0  0  0
 11 19  1  0  0  0  0
 11 32  1  0  0  0  0
 11 33  1  0  0  0  0
 12 19  1  0  0  0  0
 12 34  1  0  0  0  0
 12 35  1  0  0  0  0
 13 20  1  0  0  0  0
 13 36  1  0  0  0  0
 13 37  1  0  0  0  0
 13 38  1  0  0  0  0
 14 20  1  0  0  0  0
 14 39  1  0  0  0  0
 14 40  1  0  0  0  0
 14 41  1  0  0  0  0
 15 17  1  0  0  0  0
 15 42  1  0  0  0  0
 15 43  1  0  0  0  0
 16 23  1  0  0  0  0
 16 44  1  0  0  0  0
 16 45  1  0  0  0  0
 17 20  1  0  0  0  0
 17 46  1  0  0  0  0
 17 47  1  0  0  0  0
 18 48  1  0  0  0  0
 19 23  1  0  0  0  0
 21 23  2  0  0  0  0
 22 23  2  0  0  0  0
M  END
$$$$
DrugBank_3502
 OpenBabel01151909533D

 54 54  0  0  1  0  0  0  0  0999 V2000
    5.2240   -4.1911    1.2227 C   0  0  0  0  0  0  0  0  0  0  0  0
    7.3270   -4.8615    0.2403 C   0  0  0  0  0  0  0  0  0  0  0  0
    4.9899   -5.5074    1.6201 C   0  0  0  0  0  0  0  0  0  0  0  0
    7.0929   -6.1779    0.6378 C   0  0  0  0  0  0  0  0  0  0  0  0
    6.3925   -3.8681    0.5328 C   0  0  0  0  0  0  0  0  0  0  0  0
    5.9244   -6.5009    1.3277 C   0  0  0  0  0  0  0  0  0  0  0  0
    2.5270    2.3877   -2.0528 C   0  0  0  0  0  0  0  0  0  0  0  0
    1.3572   -1.0614   -1.6140 C   0  0  0  0  0  0  0  0  0  0  0  0
    0.9729   -4.2111   -0.9430 C   0  0  0  0  0  0  0  0  0  0  0  0
    2.3411    5.2510   -5.5745 C   0  0  0  0  0  0  0  0  0  0  0  0
    3.0008    3.0341   -3.3441 C   0  0  0  0  0  0  0  0  0  0  0  0
    0.0421   -3.0388   -0.8833 C   0  0  0  0  0  0  0  0  0  0  0  0
    3.0556    4.5616   -3.2805 C   0  0  0  0  0  0  0  0  0  0  0  0
    3.2911   -0.2215   -0.1680 C   0  0  0  0  0  0  0  0  0  0  0  0
    2.1029    0.1503   -1.0585 C   0  0  1  0  0  0  0  0  0  0  0  0
    3.4974    5.2097   -4.5953 C   0  0  2  0  0  0  0  0  0  0  0  0
    5.7250   -1.4246    0.3809 C   0  0  1  0  0  0  0  0  0  0  0  0
    3.9333    6.5714   -4.4178 N   0  0  0  0  0  0  0  0  0  0  0  0
    0.8143   -1.8495   -0.6091 N   0  0  0  0  0  0  0  0  0  0  0  0
    2.4929    1.0047   -2.1559 N   0  0  0  0  0  0  0  0  0  0  0  0
    6.6271   -2.5486    0.1336 N   0  0  0  0  0  0  0  0  0  0  0  0
    2.2378    3.0276   -1.0453 O   0  0  0  0  0  0  0  0  0  0  0  0
    1.2433   -1.2836   -2.8177 O   0  0  0  0  0  0  0  0  0  0  0  0
    2.1824   -4.1875   -0.7710 O   0  0  0  0  0  0  0  0  0  0  0  0
    1.4985    6.1371   -5.6355 O   0  0  0  0  0  0  0  0  0  0  0  0
    0.2751   -5.3425   -1.2218 O   0  0  0  0  0  0  0  0  0  0  0  0
    2.3080    4.1470   -6.3662 O   0  0  0  0  0  0  0  0  0  0  0  0
    6.4627   -0.2172    0.5871 O   0  0  0  0  0  0  0  0  0  0  0  0
    7.8573   -2.1692   -0.3974 O   0  0  0  0  0  0  0  0  0  0  0  0
    4.5512   -1.2344   -1.0097 S   0  0  0  0  0  0  0  0  0  0  0  0
    5.6081   -8.2839    1.8678 Br  0  0  0  0  0  0  0  0  0  0  0  0
    4.4892   -3.4246    1.4550 H   0  0  0  0  0  0  0  0  0  0  0  0
    8.2405   -4.6203   -0.2976 H   0  0  0  0  0  0  0  0  0  0  0  0
    4.0736   -5.7426    2.1553 H   0  0  0  0  0  0  0  0  0  0  0  0
    7.8302   -6.9406    0.4007 H   0  0  0  0  0  0  0  0  0  0  0  0
    2.3627    2.7035   -4.1715 H   0  0  0  0  0  0  0  0  0  0  0  0
    4.0110    2.6532   -3.5387 H   0  0  0  0  0  0  0  0  0  0  0  0
   -0.4622   -2.9206   -1.8460 H   0  0  0  0  0  0  0  0  0  0  0  0
   -0.6877   -3.1838   -0.0826 H   0  0  0  0  0  0  0  0  0  0  0  0
    3.7521    4.8497   -2.4818 H   0  0  0  0  0  0  0  0  0  0  0  0
    2.0736    4.9528   -2.9851 H   0  0  0  0  0  0  0  0  0  0  0  0
    3.7899    0.6797    0.2033 H   0  0  0  0  0  0  0  0  0  0  0  0
    2.9424   -0.7883    0.7020 H   0  0  0  0  0  0  0  0  0  0  0  0
    1.3884    0.7361   -0.4670 H   0  0  0  0  0  0  0  0  0  0  0  0
    4.3387    4.6811   -5.0546 H   0  0  0  0  0  0  0  0  0  0  0  0
    5.1605   -1.5813    1.3040 H   0  0  0  0  0  0  0  0  0  0  0  0
    3.8658    7.2109   -5.1919 H   0  0  0  0  0  0  0  0  0  0  0  0
    4.4785    6.8079   -3.6057 H   0  0  0  0  0  0  0  0  0  0  0  0
    0.9943   -1.6149    0.3626 H   0  0  0  0  0  0  0  0  0  0  0  0
    2.7527    0.5754   -3.0391 H   0  0  0  0  0  0  0  0  0  0  0  0
   -0.6839   -5.1642   -1.3265 H   0  0  0  0  0  0  0  0  0  0  0  0
    3.0386    3.5080   -6.2238 H   0  0  0  0  0  0  0  0  0  0  0  0
    6.9750   -0.0687   -0.2255 H   0  0  0  0  0  0  0  0  0  0  0  0
    8.4639   -2.3797    0.3334 H   0  0  0  0  0  0  0  0  0  0  0  0
  1  3  2  0  0  0  0
  1  5  1  0  0  0  0
  1 32  1  0  0  0  0
  2  4  1  0  0  0  0
  2  5  2  0  0  0  0
  2 33  1  0  0  0  0
  3  6  1  0  0  0  0
  3 34  1  0  0  0  0
  4  6  2  0  0  0  0
  4 35  1  0  0  0  0
  5 21  1  0  0  0  0
  6 31  1  0  0  0  0
  7 11  1  0  0  0  0
  7 20  1  0  0  0  0
  7 22  2  0  0  0  0
  8 15  1  0  0  0  0
  8 19  1  0  0  0  0
  8 23  2  0  0  0  0
  9 12  1  0  0  0  0
  9 24  2  0  0  0  0
  9 26  1  0  0  0  0
 10 16  1  0  0  0  0
 10 25  2  0  0  0  0
 10 27  1  0  0  0  0
 11 13  1  0  0  0  0
 11 36  1  0  0  0  0
 11 37  1  0  0  0  0
 12 19  1  0  0  0  0
 12 38  1  0  0  0  0
 12 39  1  0  0  0  0
 13 16  1  0  0  0  0
 13 40  1  0  0  0  0
 13 41  1  0  0  0  0
 14 15  1  0  0  0  0
 14 30  1  0  0  0  0
 14 42  1  0  0  0  0
 14 43  1  0  0  0  0
 15 20  1  0  0  0  0
 15 44  1  1  0  0  0
 16 18  1  0  0  0  0
 16 45  1  6  0  0  0
 17 21  1  0  0  0  0
 17 28  1  0  0  0  0
 17 30  1  0  0  0  0
 17 46  1  1  0  0  0
 18 47  1  0  0  0  0
 18 48  1  0  0  0  0
 19 49  1  0  0  0  0
 20 50  1  0  0  0  0
 21 29  1  0  0  0  0
 26 51  1  0  0  0  0
 27 52  1  0  0  0  0
 28 53  1  0  0  0  0
 29 54  1  0  0  0  0
M  END
$$$$
DrugBank_3503
 OpenBabel01151909533D

 60 61  0  0  1  0  0  0  0  0999 V2000
   -2.5826    3.6733    5.0968 C   0  0  0  0  0  0  0  0  0  0  0  0
   -3.1418    2.6541    4.4338 C   0  0  0  0  0  0  0  0  0  0  0  0
    0.5141    4.8816    8.5368 C   0  0  0  0  0  0  0  0  0  0  0  0
   -2.1595    3.4661    6.4966 C   0  0  0  0  0  0  0  0  0  0  0  0
   -1.6475    0.9236   -0.3295 C   0  0  0  0  0  0  0  0  0  0  0  0
   -0.8433    1.2987    0.9100 C   0  0  0  0  0  0  0  0  0  0  0  0
   -3.0521    0.4783    0.0613 C   0  0  0  0  0  0  0  0  0  0  0  0
   -3.0999    6.5390    8.2598 C   0  0  0  0  0  0  0  0  0  0  0  0
   -1.5968    2.3084    1.7773 C   0  0  0  0  0  0  0  0  0  0  0  0
   -3.7356    1.5138    0.9555 C   0  0  0  0  0  0  0  0  0  0  0  0
   -2.6267    5.9222    6.9538 C   0  0  0  0  0  0  0  0  0  0  0  0
   -2.1538    5.9223    9.2804 C   0  0  2  0  0  0  0  0  0  0  0  0
   -1.9558    4.4856    8.7734 C   0  0  2  0  0  0  0  0  0  0  0  0
    1.0939    3.1956   10.8913 C   0  0  0  0  0  0  0  0  0  0  0  0
   -1.3582    2.9022   11.3173 C   0  0  0  0  0  0  0  0  0  0  0  0
   -3.6574    8.4168   11.0730 C   0  0  0  0  0  0  0  0  0  0  0  0
   -3.6142    2.7576    3.0149 C   0  0  0  0  0  0  0  0  0  0  0  0
   -0.5586    3.9752    9.1194 C   0  0  2  0  0  0  0  0  0  0  0  0
   -0.3007    3.7723   10.6311 C   0  0  0  0  0  0  0  0  0  0  0  0
   -2.1990    4.5742    7.3263 N   0  0  0  0  0  0  0  0  0  0  0  0
   -2.9258    1.8019    2.1476 N   0  0  0  0  0  0  0  0  0  0  0  0
   -2.7506    5.9346   10.6297 N   0  0  0  0  0  0  0  0  0  0  0  0
    0.9663    4.7895    7.4003 O   0  0  0  0  0  0  0  0  0  0  0  0
   -1.7942    2.3420    6.8385 O   0  0  0  0  0  0  0  0  0  0  0  0
   -1.1287    7.8089   11.3674 O   0  0  0  0  0  0  0  0  0  0  0  0
   -2.8081    6.8808   13.0029 O   0  0  0  0  0  0  0  0  0  0  0  0
   -2.4392    7.2580   11.6520 S   0  0  0  0  0  0  0  0  0  0  0  0
   -2.4241    4.6477    4.6521 H   0  0  0  0  0  0  0  0  0  0  0  0
   -3.2868    1.6960    4.9287 H   0  0  0  0  0  0  0  0  0  0  0  0
    0.9091    5.6457    9.2293 H   0  0  0  0  0  0  0  0  0  0  0  0
   -1.7113    1.7892   -1.0003 H   0  0  0  0  0  0  0  0  0  0  0  0
   -1.1390    0.1249   -0.8806 H   0  0  0  0  0  0  0  0  0  0  0  0
   -0.6325    0.3956    1.4969 H   0  0  0  0  0  0  0  0  0  0  0  0
    0.1240    1.7175    0.6101 H   0  0  0  0  0  0  0  0  0  0  0  0
   -3.6523    0.3148   -0.8410 H   0  0  0  0  0  0  0  0  0  0  0  0
   -2.9982   -0.4831    0.5879 H   0  0  0  0  0  0  0  0  0  0  0  0
   -2.9490    7.6211    8.2269 H   0  0  0  0  0  0  0  0  0  0  0  0
   -4.1548    6.3427    8.4504 H   0  0  0  0  0  0  0  0  0  0  0  0
   -1.0043    2.4898    2.6819 H   0  0  0  0  0  0  0  0  0  0  0  0
   -1.6781    3.2637    1.2426 H   0  0  0  0  0  0  0  0  0  0  0  0
   -3.9232    2.4297    0.3802 H   0  0  0  0  0  0  0  0  0  0  0  0
   -4.7103    1.1127    1.2580 H   0  0  0  0  0  0  0  0  0  0  0  0
   -3.4424    5.8323    6.2332 H   0  0  0  0  0  0  0  0  0  0  0  0
   -1.8026    6.4796    6.5079 H   0  0  0  0  0  0  0  0  0  0  0  0
   -1.1931    6.4837    9.3354 H   0  0  0  0  0  0  0  0  0  0  0  0
   -2.6982    3.7966    9.2168 H   0  0  0  0  0  0  0  0  0  0  0  0
    1.1981    2.2058   10.4349 H   0  0  0  0  0  0  0  0  0  0  0  0
    1.8641    3.8431   10.4581 H   0  0  0  0  0  0  0  0  0  0  0  0
    1.3030    3.1027   11.9616 H   0  0  0  0  0  0  0  0  0  0  0  0
   -1.3925    1.8935   10.8933 H   0  0  0  0  0  0  0  0  0  0  0  0
   -1.1344    2.8016   12.3851 H   0  0  0  0  0  0  0  0  0  0  0  0
   -2.3551    3.3455   11.2307 H   0  0  0  0  0  0  0  0  0  0  0  0
   -3.5661    9.3334   11.6579 H   0  0  0  0  0  0  0  0  0  0  0  0
   -3.4682    8.6165   10.0172 H   0  0  0  0  0  0  0  0  0  0  0  0
   -4.6453    7.9739   11.2076 H   0  0  0  0  0  0  0  0  0  0  0  0
   -4.6881    2.5424    2.9917 H   0  0  0  0  0  0  0  0  0  0  0  0
   -3.4774    3.7696    2.6179 H   0  0  0  0  0  0  0  0  0  0  0  0
   -0.4220    3.0108    8.6130 H   0  0  0  0  0  0  0  0  0  0  0  0
   -0.3337    4.7587   11.1138 H   0  0  0  0  0  0  0  0  0  0  0  0
   -3.6840    5.5169   10.6628 H   0  0  0  0  0  0  0  0  0  0  0  0
  1  2  2  0  0  0  0
  1  4  1  0  0  0  0
  1 28  1  0  0  0  0
  2 17  1  0  0  0  0
  2 29  1  0  0  0  0
  3 18  1  0  0  0  0
  3 23  2  0  0  0  0
  3 30  1  0  0  0  0
  4 20  1  0  0  0  0
  4 24  2  0  0  0  0
  5  6  1  0  0  0  0
  5  7  1  0  0  0  0
  5 31  1  0  0  0  0
  5 32  1  0  0  0  0
  6  9  1  0  0  0  0
  6 33  1  0  0  0  0
  6 34  1  0  0  0  0
  7 10  1  0  0  0  0
  7 35  1  0  0  0  0
  7 36  1  0  0  0  0
  8 11  1  0  0  0  0
  8 12  1  0  0  0  0
  8 37  1  0  0  0  0
  8 38  1  0  0  0  0
  9 21  1  0  0  0  0
  9 39  1  0  0  0  0
  9 40  1  0  0  0  0
 10 21  1  0  0  0  0
 10 41  1  0  0  0  0
 10 42  1  0  0  0  0
 11 20  1  0  0  0  0
 11 43  1  0  0  0  0
 11 44  1  0  0  0  0
 12 13  1  6  0  0  0
 12 22  1  0  0  0  0
 12 45  1  0  0  0  0
 13 18  1  0  0  0  0
 13 20  1  0  0  0  0
 13 46  1  1  0  0  0
 14 19  1  0  0  0  0
 14 47  1  0  0  0  0
 14 48  1  0  0  0  0
 14 49  1  0  0  0  0
 15 19  1  0  0  0  0
 15 50  1  0  0  0  0
 15 51  1  0  0  0  0
 15 52  1  0  0  0  0
 16 27  1  0  0  0  0
 16 53  1  0  0  0  0
 16 54  1  0  0  0  0
 16 55  1  0  0  0  0
 17 21  1  0  0  0  0
 17 56  1  0  0  0  0
 17 57  1  0  0  0  0
 18 19  1  0  0  0  0
 18 58  1  6  0  0  0
 19 59  1  0  0  0  0
 22 27  1  0  0  0  0
 22 60  1  0  0  0  0
 25 27  2  0  0  0  0
 26 27  2  0  0  0  0
M  END
$$$$
DrugBank_810
 OpenBabel01151909533D

 35 35  0  0  0  0  0  0  0  0999 V2000
   -5.0153    1.8072    4.4394 C   0  0  0  0  0  0  0  0  0  0  0  0
   -4.2930    2.2692    3.3592 C   0  0  0  0  0  0  0  0  0  0  0  0
   -4.9981    4.1964    4.1328 C   0  0  0  0  0  0  0  0  0  0  0  0
    0.4646    1.5114    1.1001 C   0  0  0  0  0  0  0  0  0  0  0  0
   -4.3046    6.4117    3.8845 C   0  0  0  0  0  0  0  0  0  0  0  0
   -3.5335    1.4160    2.3809 C   0  0  0  0  0  0  0  0  0  0  0  0
   -0.7540    0.7633    0.5665 C   0  0  0  0  0  0  0  0  0  0  0  0
   -1.3984   -0.1280    1.6237 C   0  0  0  0  0  0  0  0  0  0  0  0
   -4.2823    3.6389    3.1815 N   0  0  0  0  0  0  0  0  0  0  0  0
   -5.2166    5.5269    4.2856 N   0  0  0  0  0  0  0  0  0  0  0  0
    0.2459    2.7157    1.5388 N   0  0  0  0  0  0  0  0  0  0  0  0
    1.6576    0.8284    1.0508 N   0  0  0  0  0  0  0  0  0  0  0  0
   -4.4867    7.7677    4.0209 N   0  0  0  0  0  0  0  0  0  0  0  0
   -3.0945    6.1104    3.2979 N   0  0  0  0  0  0  0  0  0  0  0  0
    0.7603    5.1396    2.5980 N   0  0  0  0  0  0  0  0  0  0  0  0
    2.3865    3.9361    1.0497 O   0  0  0  0  0  0  0  0  0  0  0  0
    1.9634    3.0224    3.3470 O   0  0  0  0  0  0  0  0  0  0  0  0
   -5.7121    3.1330    5.2749 S   0  0  0  0  0  0  0  0  0  0  0  0
   -1.9722    0.8181    3.0665 S   0  0  0  0  0  0  0  0  0  0  0  0
    1.4596    3.6370    2.1293 S   0  0  0  0  0  0  0  0  0  0  0  0
   -5.1637    0.7889    4.7702 H   0  0  0  0  0  0  0  0  0  0  0  0
   -4.1397    0.5551    2.0779 H   0  0  0  0  0  0  0  0  0  0  0  0
   -3.3224    1.9857    1.4692 H   0  0  0  0  0  0  0  0  0  0  0  0
   -1.4798    1.4693    0.1461 H   0  0  0  0  0  0  0  0  0  0  0  0
   -0.4102    0.1336   -0.2640 H   0  0  0  0  0  0  0  0  0  0  0  0
   -2.2645   -0.6409    1.1935 H   0  0  0  0  0  0  0  0  0  0  0  0
   -0.6967   -0.8914    1.9746 H   0  0  0  0  0  0  0  0  0  0  0  0
    2.5227    1.2399    1.3851 H   0  0  0  0  0  0  0  0  0  0  0  0
    1.7154   -0.1153    0.6842 H   0  0  0  0  0  0  0  0  0  0  0  0
   -5.3318    8.1434    4.4375 H   0  0  0  0  0  0  0  0  0  0  0  0
   -3.7842    8.4308    3.7124 H   0  0  0  0  0  0  0  0  0  0  0  0
   -2.4521    6.8435    3.0176 H   0  0  0  0  0  0  0  0  0  0  0  0
   -2.8034    5.1552    3.1223 H   0  0  0  0  0  0  0  0  0  0  0  0
    0.1205    5.1140    3.4024 H   0  0  0  0  0  0  0  0  0  0  0  0
    0.4097    5.7363    1.8376 H   0  0  0  0  0  0  0  0  0  0  0  0
  1  2  2  0  0  0  0
  1 18  1  0  0  0  0
  1 21  1  0  0  0  0
  2  6  1  0  0  0  0
  2  9  1  0  0  0  0
  3  9  2  0  0  0  0
  3 10  1  0  0  0  0
  3 18  1  0  0  0  0
  4  7  1  0  0  0  0
  4 11  2  0  0  0  0
  4 12  1  0  0  0  0
  5 10  2  0  0  0  0
  5 13  1  0  0  0  0
  5 14  1  0  0  0  0
  6 19  1  0  0  0  0
  6 22  1  0  0  0  0
  6 23  1  0  0  0  0
  7  8  1  0  0  0  0
  7 24  1  0  0  0  0
  7 25  1  0  0  0  0
  8 19  1  0  0  0  0
  8 26  1  0  0  0  0
  8 27  1  0  0  0  0
 11 20  1  0  0  0  0
 12 28  1  0  0  0  0
 12 29  1  0  0  0  0
 13 30  1  0  0  0  0
 13 31  1  0  0  0  0
 14 32  1  0  0  0  0
 14 33  1  0  0  0  0
 15 20  1  0  0  0  0
 15 34  1  0  0  0  0
 15 35  1  0  0  0  0
 16 20  2  0  0  0  0
 17 20  2  0  0  0  0
M  END
$$$$
DrugBank_826
 OpenBabel01151909533D

 92 93  0  0  0  0  0  0  0  0999 V2000
   -5.8729    3.4057   -0.2210 C   0  0  0  0  0  0  0  0  0  0  0  0
   -3.8087   -4.4243    0.1335 C   0  0  0  0  0  0  0  0  0  0  0  0
   -5.4865    2.9375   -1.4769 C   0  0  0  0  0  0  0  0  0  0  0  0
   -5.1552   -4.5969   -0.1871 C   0  0  0  0  0  0  0  0  0  0  0  0
   -5.3688    2.8051    0.9326 C   0  0  0  0  0  0  0  0  0  0  0  0
   -2.9101   -3.9888   -0.8406 C   0  0  0  0  0  0  0  0  0  0  0  0
   -4.0920    1.2681   -0.4254 C   0  0  0  0  0  0  0  0  0  0  0  0
   -4.7046   -3.8985   -2.4557 C   0  0  0  0  0  0  0  0  0  0  0  0
   -4.5961    1.8687   -1.5791 C   0  0  0  0  0  0  0  0  0  0  0  0
   -5.6032   -4.3340   -1.4816 C   0  0  0  0  0  0  0  0  0  0  0  0
   -4.4783    1.7364    0.8304 C   0  0  0  0  0  0  0  0  0  0  0  0
   -3.3581   -3.7259   -2.1351 C   0  0  0  0  0  0  0  0  0  0  0  0
   -4.7450    0.0714    2.4643 C   0  0  0  0  0  0  0  0  0  0  0  0
   -1.8550   -4.3204   -3.8381 C   0  0  0  0  0  0  0  0  0  0  0  0
   -4.8775   -1.6257    4.2609 C   0  0  0  0  0  0  0  0  0  0  0  0
   -0.2401   -4.7754   -5.6575 C   0  0  0  0  0  0  0  0  0  0  0  0
   -3.4929    2.4900   -3.7170 C   0  0  0  0  0  0  0  0  0  0  0  0
   -5.4128    0.8685   -3.7023 C   0  0  0  0  0  0  0  0  0  0  0  0
   -3.1891    0.1900   -2.8618 C   0  0  0  0  0  0  0  0  0  0  0  0
   -7.9181   -3.6063   -0.9475 C   0  0  0  0  0  0  0  0  0  0  0  0
   -7.4549   -5.9864   -1.6080 C   0  0  0  0  0  0  0  0  0  0  0  0
   -7.3762   -4.1776   -3.2913 C   0  0  0  0  0  0  0  0  0  0  0  0
   -0.1057   -1.0722    0.2054 C   0  0  0  0  0  0  0  0  0  0  0  0
    1.1301   -1.8167   -0.3051 C   0  0  0  0  0  0  0  0  0  0  0  0
   -0.3047   -1.2883    1.7066 C   0  0  0  0  0  0  0  0  0  0  0  0
    1.3486   -1.5677   -1.7992 C   0  0  0  0  0  0  0  0  0  0  0  0
   -1.5583   -0.5706    2.2110 C   0  0  0  0  0  0  0  0  0  0  0  0
    0.2064   -2.0900   -2.6762 C   0  0  0  0  0  0  0  0  0  0  0  0
   -1.7387   -0.7628    3.7196 C   0  0  0  0  0  0  0  0  0  0  0  0
    0.4625   -1.9108   -4.1762 C   0  0  0  0  0  0  0  0  0  0  0  0
   -2.9744   -0.0470    4.2561 C   0  0  0  0  0  0  0  0  0  0  0  0
   -0.6921   -2.4267   -5.0303 C   0  0  0  0  0  0  0  0  0  0  0  0
   -4.1878   -0.4963    3.6306 N   0  0  0  0  0  0  0  0  0  0  0  0
   -0.9578   -3.8210   -4.8072 N   0  0  0  0  0  0  0  0  0  0  0  0
   -4.1961    1.3829   -2.8811 N   0  3  0  0  0  0  0  0  0  0  0  0
   -6.9991   -4.5136   -1.8141 N   0  3  0  0  0  0  0  0  0  0  0  0
   -5.7815   -0.3086    1.9206 O   0  0  0  0  0  0  0  0  0  0  0  0
   -2.0908   -5.5122   -3.6423 O   0  0  0  0  0  0  0  0  0  0  0  0
   -3.9724    1.1344    1.9872 O   0  0  0  0  0  0  0  0  0  0  0  0
   -2.4572   -3.2888   -3.1117 O   0  0  0  0  0  0  0  0  0  0  0  0
   -6.5664    4.2377   -0.1413 H   0  0  0  0  0  0  0  0  0  0  0  0
   -3.4597   -4.6291    1.1413 H   0  0  0  0  0  0  0  0  0  0  0  0
   -5.8847    3.4117   -2.3700 H   0  0  0  0  0  0  0  0  0  0  0  0
   -5.8477   -4.9367    0.5785 H   0  0  0  0  0  0  0  0  0  0  0  0
   -5.6731    3.1746    1.9081 H   0  0  0  0  0  0  0  0  0  0  0  0
   -1.8625   -3.8558   -0.5847 H   0  0  0  0  0  0  0  0  0  0  0  0
   -3.3978    0.4343   -0.5006 H   0  0  0  0  0  0  0  0  0  0  0  0
   -5.0496   -3.6929   -3.4663 H   0  0  0  0  0  0  0  0  0  0  0  0
   -4.5120   -2.5684    3.8454 H   0  0  0  0  0  0  0  0  0  0  0  0
   -5.9543   -1.5572    4.0842 H   0  0  0  0  0  0  0  0  0  0  0  0
   -4.6985   -1.6236    5.3395 H   0  0  0  0  0  0  0  0  0  0  0  0
   -0.8186   -4.9819   -6.5617 H   0  0  0  0  0  0  0  0  0  0  0  0
   -0.0798   -5.7140   -5.1203 H   0  0  0  0  0  0  0  0  0  0  0  0
    0.7319   -4.3669   -5.9472 H   0  0  0  0  0  0  0  0  0  0  0  0
   -3.2195    2.0574   -4.6812 H   0  0  0  0  0  0  0  0  0  0  0  0
   -4.1987    3.3133   -3.8420 H   0  0  0  0  0  0  0  0  0  0  0  0
   -2.6071    2.8124   -3.1664 H   0  0  0  0  0  0  0  0  0  0  0  0
   -5.0407    0.5192   -4.6671 H   0  0  0  0  0  0  0  0  0  0  0  0
   -5.8743    0.0538   -3.1410 H   0  0  0  0  0  0  0  0  0  0  0  0
   -6.1073    1.7014   -3.8277 H   0  0  0  0  0  0  0  0  0  0  0  0
   -2.9701   -0.0789   -3.8967 H   0  0  0  0  0  0  0  0  0  0  0  0
   -2.2877    0.5220   -2.3432 H   0  0  0  0  0  0  0  0  0  0  0  0
   -3.6633   -0.6390   -2.3329 H   0  0  0  0  0  0  0  0  0  0  0  0
   -8.9506   -3.7917   -1.2491 H   0  0  0  0  0  0  0  0  0  0  0  0
   -7.7607   -3.8738    0.0991 H   0  0  0  0  0  0  0  0  0  0  0  0
   -7.6351   -2.5686   -1.1343 H   0  0  0  0  0  0  0  0  0  0  0  0
   -8.5112   -6.0495   -1.8758 H   0  0  0  0  0  0  0  0  0  0  0  0
   -6.8467   -6.6185   -2.2577 H   0  0  0  0  0  0  0  0  0  0  0  0
   -7.3007   -6.2399   -0.5574 H   0  0  0  0  0  0  0  0  0  0  0  0
   -8.4469   -4.3529   -3.4108 H   0  0  0  0  0  0  0  0  0  0  0  0
   -7.1276   -3.1296   -3.4695 H   0  0  0  0  0  0  0  0  0  0  0  0
   -6.7960   -4.8347   -3.9420 H   0  0  0  0  0  0  0  0  0  0  0  0
   -0.9935   -1.4197   -0.3370 H   0  0  0  0  0  0  0  0  0  0  0  0
    0.0000    0.0000    0.0000 H   0  0  0  0  0  0  0  0  0  0  0  0
    1.0045   -2.8888   -0.1169 H   0  0  0  0  0  0  0  0  0  0  0  0
    2.0138   -1.4888    0.2554 H   0  0  0  0  0  0  0  0  0  0  0  0
    0.5734   -0.9188    2.2503 H   0  0  0  0  0  0  0  0  0  0  0  0
   -0.3864   -2.3620    1.9156 H   0  0  0  0  0  0  0  0  0  0  0  0
    1.4906   -0.4952   -1.9797 H   0  0  0  0  0  0  0  0  0  0  0  0
    2.2745   -2.0656   -2.1131 H   0  0  0  0  0  0  0  0  0  0  0  0
   -2.4393   -0.9568    1.6841 H   0  0  0  0  0  0  0  0  0  0  0  0
   -1.4837    0.4979    1.9766 H   0  0  0  0  0  0  0  0  0  0  0  0
   -0.7276   -1.5914   -2.3910 H   0  0  0  0  0  0  0  0  0  0  0  0
    0.0729   -3.1577   -2.4617 H   0  0  0  0  0  0  0  0  0  0  0  0
   -1.8341   -1.8336    3.9366 H   0  0  0  0  0  0  0  0  0  0  0  0
   -0.8448   -0.4051    4.2454 H   0  0  0  0  0  0  0  0  0  0  0  0
    1.3721   -2.4570   -4.4534 H   0  0  0  0  0  0  0  0  0  0  0  0
    0.6355   -0.8529   -4.4044 H   0  0  0  0  0  0  0  0  0  0  0  0
   -2.8972    1.0281    4.0661 H   0  0  0  0  0  0  0  0  0  0  0  0
   -3.0789   -0.1972    5.3353 H   0  0  0  0  0  0  0  0  0  0  0  0
   -0.4900   -2.2897   -6.0972 H   0  0  0  0  0  0  0  0  0  0  0  0
   -1.6101   -1.8831   -4.7853 H   0  0  0  0  0  0  0  0  0  0  0  0
  1  3  2  0  0  0  0
  1  5  1  0  0  0  0
  1 41  1  0  0  0  0
  2  4  2  0  0  0  0
  2  6  1  0  0  0  0
  2 42  1  0  0  0  0
  3  9  1  0  0  0  0
  3 43  1  0  0  0  0
  4 10  1  0  0  0  0
  4 44  1  0  0  0  0
  5 11  2  0  0  0  0
  5 45  1  0  0  0  0
  6 12  2  0  0  0  0
  6 46  1  0  0  0  0
  7  9  2  0  0  0  0
  7 11  1  0  0  0  0
  7 47  1  0  0  0  0
  8 10  2  0  0  0  0
  8 12  1  0  0  0  0
  8 48  1  0  0  0  0
  9 35  1  0  0  0  0
 10 36  1  0  0  0  0
 11 39  1  0  0  0  0
 12 40  1  0  0  0  0
 13 33  1  0  0  0  0
 13 37  2  0  0  0  0
 13 39  1  0  0  0  0
 14 34  1  0  0  0  0
 14 38  2  0  0  0  0
 14 40  1  0  0  0  0
 15 33  1  0  0  0  0
 15 49  1  0  0  0  0
 15 50  1  0  0  0  0
 15 51  1  0  0  0  0
 16 34  1  0  0  0  0
 16 52  1  0  0  0  0
 16 53  1  0  0  0  0
 16 54  1  0  0  0  0
 17 35  1  0  0  0  0
 17 55  1  0  0  0  0
 17 56  1  0  0  0  0
 17 57  1  0  0  0  0
 18 35  1  0  0  0  0
 18 58  1  0  0  0  0
 18 59  1  0  0  0  0
 18 60  1  0  0  0  0
 19 35  1  0  0  0  0
 19 61  1  0  0  0  0
 19 62  1  0  0  0  0
 19 63  1  0  0  0  0
 20 36  1  0  0  0  0
 20 64  1  0  0  0  0
 20 65  1  0  0  0  0
 20 66  1  0  0  0  0
 21 36  1  0  0  0  0
 21 67  1  0  0  0  0
 21 68  1  0  0  0  0
 21 69  1  0  0  0  0
 22 36  1  0  0  0  0
 22 70  1  0  0  0  0
 22 71  1  0  0  0  0
 22 72  1  0  0  0  0
 23 24  1  0  0  0  0
 23 25  1  0  0  0  0
 23 73  1  0  0  0  0
 23 74  1  0  0  0  0
 24 26  1  0  0  0  0
 24 75  1  0  0  0  0
 24 76  1  0  0  0  0
 25 27  1  0  0  0  0
 25 77  1  0  0  0  0
 25 78  1  0  0  0  0
 26 28  1  0  0  0  0
 26 79  1  0  0  0  0
 26 80  1  0  0  0  0
 27 29  1  0  0  0  0
 27 81  1  0  0  0  0
 27 82  1  0  0  0  0
 28 30  1  0  0  0  0
 28 83  1  0  0  0  0
 28 84  1  0  0  0  0
 29 31  1  0  0  0  0
 29 85  1  0  0  0  0
 29 86  1  0  0  0  0
 30 32  1  0  0  0  0
 30 87  1  0  0  0  0
 30 88  1  0  0  0  0
 31 33  1  0  0  0  0
 31 89  1  0  0  0  0
 31 90  1  0  0  0  0
 32 34  1  0  0  0  0
 32 91  1  0  0  0  0
 32 92  1  0  0  0  0
M  CHG  2  35   1  36   1
M  END
$$$$
DrugBank_830
 OpenBabel01151909533D

 61 64  0  0  1  0  0  0  0  0999 V2000
   -5.3769   -1.3827    3.7505 C   0  0  0  0  0  0  0  0  0  0  0  0
   -4.6391   -2.3959    4.3625 C   0  0  0  0  0  0  0  0  0  0  0  0
   -4.7374   -0.4506    2.9331 C   0  0  0  0  0  0  0  0  0  0  0  0
   -3.2618   -2.4770    4.1574 C   0  0  0  0  0  0  0  0  0  0  0  0
   -3.3601   -0.5317    2.7279 C   0  0  0  0  0  0  0  0  0  0  0  0
   -2.6223   -1.5449    3.3401 C   0  0  0  0  0  0  0  0  0  0  0  0
    0.7417   -2.0146    7.6272 C   0  0  0  0  0  0  0  0  0  0  0  0
    0.0387    0.0184   -0.7139 C   0  0  0  0  0  0  0  0  0  0  0  0
   -0.4717   -1.4026   10.6994 C   0  0  0  0  0  0  0  0  0  0  0  0
   -0.3555   -0.8296    4.1561 C   0  0  0  0  0  0  0  0  0  0  0  0
   -0.6816   -1.9943    0.6989 C   0  0  0  0  0  0  0  0  0  0  0  0
   -0.0716   -2.1085   -1.7141 C   0  0  0  0  0  0  0  0  0  0  0  0
    0.0830   -1.0972   -2.8475 C   0  0  0  0  0  0  0  0  0  0  0  0
    0.6650   -1.0588    6.4190 C   0  0  2  0  0  0  0  0  0  0  0  0
   -1.0159   -1.4354    9.3069 C   0  0  1  0  0  0  0  0  0  0  0  0
   -0.1276   -0.1252    7.3521 C   0  0  2  0  0  0  0  0  0  0  0  0
   -2.1543   -0.4343    9.0194 C   0  0  0  0  0  0  0  0  0  0  0  0
   -3.5271   -1.0709    9.2443 C   0  0  0  0  0  0  0  0  0  0  0  0
   -2.0535    0.8861    9.7952 C   0  0  0  0  0  0  0  0  0  0  0  0
   -1.0589    1.8572   -3.5187 C   0  0  0  0  0  0  0  0  0  0  0  0
   -1.1303   -1.6321    3.1176 C   0  0  2  0  0  0  0  0  0  0  0  0
    0.0785   -1.1174    8.4131 N   0  0  0  0  0  0  0  0  0  0  0  0
   -0.2839   -1.3380   -0.4895 N   0  0  0  0  0  0  0  0  0  0  0  0
    0.3834    0.1402   -2.0966 N   0  0  0  0  0  0  0  0  0  0  0  0
   -0.0355   -1.5953    5.2615 N   0  0  0  0  0  0  0  0  0  0  0  0
   -0.7522   -1.1576    1.8067 N   0  0  0  0  0  0  0  0  0  0  0  0
    1.1116   -3.1518    7.8145 O   0  0  0  0  0  0  0  0  0  0  0  0
    0.0233    0.9451    0.0829 O   0  0  0  0  0  0  0  0  0  0  0  0
    0.4042   -0.6469   11.0929 O   0  0  0  0  0  0  0  0  0  0  0  0
   -0.0957    0.3641    4.0180 O   0  0  0  0  0  0  0  0  0  0  0  0
   -0.9342   -3.2007    0.7451 O   0  0  0  0  0  0  0  0  0  0  0  0
    1.4350    1.3484   -4.1093 O   0  0  0  0  0  0  0  0  0  0  0  0
    0.9189    2.6546   -2.0086 O   0  0  0  0  0  0  0  0  0  0  0  0
   -1.0823   -2.3324   11.4739 O   0  0  0  0  0  0  0  0  0  0  0  0
   -1.9532   -0.0526    7.2085 S   0  0  0  0  0  0  0  0  0  0  0  0
    0.6011    1.5861   -2.9422 S   0  0  0  0  0  0  0  0  0  0  0  0
   -6.4495   -1.3205    3.9092 H   0  0  0  0  0  0  0  0  0  0  0  0
   -5.1370   -3.1224    4.9981 H   0  0  0  0  0  0  0  0  0  0  0  0
   -5.3117    0.3377    2.4555 H   0  0  0  0  0  0  0  0  0  0  0  0
   -2.6949   -3.2697    4.6385 H   0  0  0  0  0  0  0  0  0  0  0  0
   -2.8704    0.1989    2.0896 H   0  0  0  0  0  0  0  0  0  0  0  0
   -0.8979   -2.8065   -1.8821 H   0  0  0  0  0  0  0  0  0  0  0  0
    0.8453   -2.6940   -1.5786 H   0  0  0  0  0  0  0  0  0  0  0  0
    0.8881   -1.3721   -3.5328 H   0  0  0  0  0  0  0  0  0  0  0  0
   -0.8586   -0.9792   -3.3929 H   0  0  0  0  0  0  0  0  0  0  0  0
    1.6483   -0.6664    6.1358 H   0  0  0  0  0  0  0  0  0  0  0  0
   -1.3341   -2.4659    9.1031 H   0  0  0  0  0  0  0  0  0  0  0  0
    0.3558    0.8309    7.5758 H   0  0  0  0  0  0  0  0  0  0  0  0
   -4.3077   -0.3428    9.0342 H   0  0  0  0  0  0  0  0  0  0  0  0
   -3.6132   -1.4009   10.2774 H   0  0  0  0  0  0  0  0  0  0  0  0
   -3.6472   -1.9264    8.5831 H   0  0  0  0  0  0  0  0  0  0  0  0
   -2.8913    1.5253    9.5316 H   0  0  0  0  0  0  0  0  0  0  0  0
   -1.1228    1.3850    9.5405 H   0  0  0  0  0  0  0  0  0  0  0  0
   -2.0751    0.6814   10.8618 H   0  0  0  0  0  0  0  0  0  0  0  0
   -1.0756    2.7819   -4.0978 H   0  0  0  0  0  0  0  0  0  0  0  0
   -1.3495    1.0103   -4.1422 H   0  0  0  0  0  0  0  0  0  0  0  0
   -1.7158    1.9372   -2.6514 H   0  0  0  0  0  0  0  0  0  0  0  0
   -0.7969   -2.6762    3.1549 H   0  0  0  0  0  0  0  0  0  0  0  0
   -0.2891   -2.5735    5.2937 H   0  0  0  0  0  0  0  0  0  0  0  0
   -0.5296   -0.1745    1.6914 H   0  0  0  0  0  0  0  0  0  0  0  0
   -1.7574   -2.8394   10.9743 H   0  0  0  0  0  0  0  0  0  0  0  0
  1  2  2  0  0  0  0
  1  3  1  0  0  0  0
  1 37  1  0  0  0  0
  2  4  1  0  0  0  0
  2 38  1  0  0  0  0
  3  5  2  0  0  0  0
  3 39  1  0  0  0  0
  4  6  2  0  0  0  0
  4 40  1  0  0  0  0
  5  6  1  0  0  0  0
  5 41  1  0  0  0  0
  6 21  1  0  0  0  0
  7 14  1  0  0  0  0
  7 22  1  0  0  0  0
  7 27  2  0  0  0  0
  8 23  1  0  0  0  0
  8 24  1  0  0  0  0
  8 28  2  0  0  0  0
  9 15  1  0  0  0  0
  9 29  2  0  0  0  0
  9 34  1  0  0  0  0
 10 21  1  0  0  0  0
 10 25  1  0  0  0  0
 10 30  2  0  0  0  0
 11 23  1  0  0  0  0
 11 26  1  0  0  0  0
 11 31  2  0  0  0  0
 12 13  1  0  0  0  0
 12 23  1  0  0  0  0
 12 42  1  0  0  0  0
 12 43  1  0  0  0  0
 13 24  1  0  0  0  0
 13 44  1  0  0  0  0
 13 45  1  0  0  0  0
 14 16  1  1  0  0  0
 14 25  1  0  0  0  0
 14 46  1  0  0  0  0
 15 17  1  0  0  0  0
 15 22  1  0  0  0  0
 15 47  1  6  0  0  0
 16 22  1  0  0  0  0
 16 35  1  0  0  0  0
 16 48  1  1  0  0  0
 17 18  1  0  0  0  0
 17 19  1  0  0  0  0
 17 35  1  0  0  0  0
 18 49  1  0  0  0  0
 18 50  1  0  0  0  0
 18 51  1  0  0  0  0
 19 52  1  0  0  0  0
 19 53  1  0  0  0  0
 19 54  1  0  0  0  0
 20 36  1  0  0  0  0
 20 55  1  0  0  0  0
 20 56  1  0  0  0  0
 20 57  1  0  0  0  0
 21 26  1  0  0  0  0
 21 58  1  1  0  0  0
 24 36  1  0  0  0  0
 25 59  1  0  0  0  0
 26 60  1  0  0  0  0
 32 36  2  0  0  0  0
 33 36  2  0  0  0  0
 34 61  1  0  0  0  0
M  END
$$$$
DrugBank_834
 OpenBabel01151909533D

 48 50  0  0  0  0  0  0  0  0999 V2000
    1.3481    5.5994   -2.0829 C   0  0  0  0  0  0  0  0  0  0  0  0
   -0.0330    5.3948   -2.0150 C   0  0  0  0  0  0  0  0  0  0  0  0
    1.7570    3.2070   -2.1621 C   0  0  0  0  0  0  0  0  0  0  0  0
   -1.7556    2.2092   -2.0003 C   0  0  0  0  0  0  0  0  0  0  0  0
    0.3687    2.9761   -2.0944 C   0  0  0  0  0  0  0  0  0  0  0  0
   -0.4423    1.8068   -2.0797 C   0  0  0  0  0  0  0  0  0  0  0  0
    2.2311    4.5239   -2.1554 C   0  0  0  0  0  0  0  0  0  0  0  0
   -0.4925    4.0731   -2.0225 C   0  0  0  0  0  0  0  0  0  0  0  0
   -0.4547   -0.3667   -3.3914 C   0  0  0  0  0  0  0  0  0  0  0  0
   -0.3217   -0.4274   -0.8797 C   0  0  0  0  0  0  0  0  0  0  0  0
    0.0334   -1.8175   -3.4064 C   0  0  0  0  0  0  0  0  0  0  0  0
    0.1612   -1.8761   -0.9862 C   0  0  0  0  0  0  0  0  0  0  0  0
    0.0411    0.3753   -2.1396 C   0  0  0  0  0  0  0  0  0  0  0  0
    0.0466   -3.9268   -2.2441 C   0  0  0  0  0  0  0  0  0  0  0  0
    5.7253    4.1980   -6.2754 C   0  0  0  0  0  0  0  0  0  0  0  0
    3.7006    4.7770   -2.2267 C   0  0  0  0  0  0  0  0  0  0  0  0
    4.2298    4.9144   -3.6563 C   0  0  0  0  0  0  0  0  0  0  0  0
   -1.7758    3.5777   -1.9666 N   0  0  0  0  0  0  0  0  0  0  0  0
   -0.3774   -2.5278   -2.1878 N   0  0  0  0  0  0  0  0  0  0  0  0
    6.2316    5.2734   -5.4037 N   0  0  0  0  0  0  0  0  0  0  0  0
    6.2796    6.4424   -3.0959 O   0  0  0  0  0  0  0  0  0  0  0  0
    6.6167    3.9479   -3.2394 O   0  0  0  0  0  0  0  0  0  0  0  0
    5.9765    5.1632   -3.7168 S   0  0  0  0  0  0  0  0  0  0  0  0
    1.7288    6.6184   -2.0793 H   0  0  0  0  0  0  0  0  0  0  0  0
   -0.7196    6.2327   -1.9583 H   0  0  0  0  0  0  0  0  0  0  0  0
    2.4511    2.3726   -2.2189 H   0  0  0  0  0  0  0  0  0  0  0  0
   -2.6780    1.6461   -1.9644 H   0  0  0  0  0  0  0  0  0  0  0  0
   -0.1045    0.1459   -4.2961 H   0  0  0  0  0  0  0  0  0  0  0  0
   -1.5527   -0.3506   -3.4299 H   0  0  0  0  0  0  0  0  0  0  0  0
   -1.4094   -0.4158   -0.7248 H   0  0  0  0  0  0  0  0  0  0  0  0
    0.1236    0.0418    0.0067 H   0  0  0  0  0  0  0  0  0  0  0  0
   -0.3963   -2.3116   -4.2864 H   0  0  0  0  0  0  0  0  0  0  0  0
    1.1251   -1.8374   -3.5223 H   0  0  0  0  0  0  0  0  0  0  0  0
    1.2590   -1.8989   -0.9868 H   0  0  0  0  0  0  0  0  0  0  0  0
   -0.1747   -2.4130   -0.0907 H   0  0  0  0  0  0  0  0  0  0  0  0
    1.1541    0.4270   -2.1974 H   0  0  0  0  0  0  0  0  0  0  0  0
   -0.2618   -4.4497   -1.3350 H   0  0  0  0  0  0  0  0  0  0  0  0
    1.1345   -3.9887   -2.3337 H   0  0  0  0  0  0  0  0  0  0  0  0
   -0.4050   -4.4242   -3.1066 H   0  0  0  0  0  0  0  0  0  0  0  0
    5.8170    3.2320   -5.7722 H   0  0  0  0  0  0  0  0  0  0  0  0
    6.2973    4.1655   -7.2066 H   0  0  0  0  0  0  0  0  0  0  0  0
    4.6729    4.3708   -6.5164 H   0  0  0  0  0  0  0  0  0  0  0  0
    4.2386    3.9443   -1.7424 H   0  0  0  0  0  0  0  0  0  0  0  0
    3.9768    5.6764   -1.6504 H   0  0  0  0  0  0  0  0  0  0  0  0
    4.0378    3.9987   -4.2246 H   0  0  0  0  0  0  0  0  0  0  0  0
    3.7670    5.7522   -4.1866 H   0  0  0  0  0  0  0  0  0  0  0  0
   -2.6114    4.1433   -1.9087 H   0  0  0  0  0  0  0  0  0  0  0  0
    6.1727    6.2113   -5.8210 H   0  0  0  0  0  0  0  0  0  0  0  0
  1  2  2  0  0  0  0
  1  7  1  0  0  0  0
  1 24  1  0  0  0  0
  2  8  1  0  0  0  0
  2 25  1  0  0  0  0
  3  5  1  0  0  0  0
  3  7  2  0  0  0  0
  3 26  1  0  0  0  0
  4  6  2  0  0  0  0
  4 18  1  0  0  0  0
  4 27  1  0  0  0  0
  5  6  1  0  0  0  0
  5  8  2  0  0  0  0
  6 13  1  0  0  0  0
  7 16  1  0  0  0  0
  8 18  1  0  0  0  0
  9 11  1  0  0  0  0
  9 13  1  0  0  0  0
  9 28  1  0  0  0  0
  9 29  1  0  0  0  0
 10 12  1  0  0  0  0
 10 13  1  0  0  0  0
 10 30  1  0  0  0  0
 10 31  1  0  0  0  0
 11 19  1  0  0  0  0
 11 32  1  0  0  0  0
 11 33  1  0  0  0  0
 12 19  1  0  0  0  0
 12 34  1  0  0  0  0
 12 35  1  0  0  0  0
 13 36  1  0  0  0  0
 14 19  1  0  0  0  0
 14 37  1  0  0  0  0
 14 38  1  0  0  0  0
 14 39  1  0  0  0  0
 15 20  1  0  0  0  0
 15 40  1  0  0  0  0
 15 41  1  0  0  0  0
 15 42  1  0  0  0  0
 16 17  1  0  0  0  0
 16 43  1  0  0  0  0
 16 44  1  0  0  0  0
 17 23  1  0  0  0  0
 17 45  1  0  0  0  0
 17 46  1  0  0  0  0
 18 47  1  0  0  0  0
 20 23  1  0  0  0  0
 20 48  1  0  0  0  0
 21 23  2  0  0  0  0
 22 23  2  0  0  0  0
M  END
$$$$
DrugBank_6004
 OpenBabel01151909533D

 51 53  0  0  0  0  0  0  0  0999 V2000
    7.9529    0.4457    6.3061 C   0  0  0  0  0  0  0  0  0  0  0  0
    8.7956    1.5539    6.3925 C   0  0  0  0  0  0  0  0  0  0  0  0
    4.1674    1.6644    4.0499 C   0  0  0  0  0  0  0  0  0  0  0  0
    3.6889    1.6876    5.3441 C   0  0  0  0  0  0  0  0  0  0  0  0
    6.0276    1.9007    6.4220 C   0  0  0  0  0  0  0  0  0  0  0  0
    6.5689    0.6191    6.3208 C   0  0  0  0  0  0  0  0  0  0  0  0
    8.2543    2.8354    6.4937 C   0  0  0  0  0  0  0  0  0  0  0  0
    6.8703    3.0089    6.5085 C   0  0  0  0  0  0  0  0  0  0  0  0
    2.3758    1.2940    5.5022 C   0  0  0  0  0  0  0  0  0  0  0  0
    2.1644    0.9259    3.2691 C   0  0  0  0  0  0  0  0  0  0  0  0
    4.5475    2.1046    6.4411 C   0  0  0  0  0  0  0  0  0  0  0  0
   -0.0965   -1.3239    2.8550 C   0  0  0  0  0  0  0  0  0  0  0  0
   -0.7503    0.2669    1.0112 C   0  0  0  0  0  0  0  0  0  0  0  0
    0.2847   -2.3583    1.7975 C   0  0  0  0  0  0  0  0  0  0  0  0
   -0.3449   -0.7914   -0.0125 C   0  0  0  0  0  0  0  0  0  0  0  0
    0.0037    0.1136    2.3350 C   0  0  0  0  0  0  0  0  0  0  0  0
    5.3792   -1.0971    7.4589 C   0  0  0  0  0  0  0  0  0  0  0  0
    1.2291   -3.4671   -0.9099 C   0  0  0  0  0  0  0  0  0  0  0  0
    3.4300    1.2876    2.9847 N   0  0  0  0  0  0  0  0  0  0  0  0
    1.5816    0.9057    4.4830 N   0  0  0  0  0  0  0  0  0  0  0  0
   -0.5385   -2.1507    0.5709 N   0  0  0  0  0  0  0  0  0  0  0  0
    1.8259    1.2965    6.8082 N   0  0  0  0  0  0  0  0  0  0  0  0
    1.3798    0.5326    2.2014 N   0  0  0  0  0  0  0  0  0  0  0  0
    4.0616    2.6524    7.4419 O   0  0  0  0  0  0  0  0  0  0  0  0
   -1.2041   -3.0263   -1.7542 O   0  0  0  0  0  0  0  0  0  0  0  0
   -0.8443   -4.6669    0.1338 O   0  0  0  0  0  0  0  0  0  0  0  0
    5.7628   -0.4764    6.2337 O   0  0  0  0  0  0  0  0  0  0  0  0
    9.0633    3.8995    6.5800 F   0  0  0  0  0  0  0  0  0  0  0  0
    6.3621    4.2455    6.6072 F   0  0  0  0  0  0  0  0  0  0  0  0
   -0.5090   -3.4417   -0.5565 S   0  0  0  0  0  0  0  0  0  0  0  0
    8.3812   -0.5497    6.2256 H   0  0  0  0  0  0  0  0  0  0  0  0
    9.8730    1.4184    6.3799 H   0  0  0  0  0  0  0  0  0  0  0  0
    5.1872    1.9550    3.8163 H   0  0  0  0  0  0  0  0  0  0  0  0
   -1.1316   -1.5090    3.1708 H   0  0  0  0  0  0  0  0  0  0  0  0
    0.5357   -1.4584    3.7409 H   0  0  0  0  0  0  0  0  0  0  0  0
   -0.5869    1.2654    0.5882 H   0  0  0  0  0  0  0  0  0  0  0  0
   -1.8265    0.1756    1.2077 H   0  0  0  0  0  0  0  0  0  0  0  0
    1.3489   -2.2878    1.5453 H   0  0  0  0  0  0  0  0  0  0  0  0
    0.0935   -3.3597    2.1986 H   0  0  0  0  0  0  0  0  0  0  0  0
   -0.9779   -0.6834   -0.9001 H   0  0  0  0  0  0  0  0  0  0  0  0
    0.6995   -0.6644   -0.3191 H   0  0  0  0  0  0  0  0  0  0  0  0
   -0.4699    0.7855    3.0809 H   0  0  0  0  0  0  0  0  0  0  0  0
    4.7385   -1.9567    7.2477 H   0  0  0  0  0  0  0  0  0  0  0  0
    4.8453   -0.3755    8.0824 H   0  0  0  0  0  0  0  0  0  0  0  0
    6.2767   -1.4345    7.9826 H   0  0  0  0  0  0  0  0  0  0  0  0
    1.4215   -4.2594   -1.6351 H   0  0  0  0  0  0  0  0  0  0  0  0
    1.5112   -2.4963   -1.3203 H   0  0  0  0  0  0  0  0  0  0  0  0
    1.7666   -3.6605    0.0195 H   0  0  0  0  0  0  0  0  0  0  0  0
    2.4133    1.5355    7.5772 H   0  0  0  0  0  0  0  0  0  0  0  0
    0.8935    0.9690    6.9381 H   0  0  0  0  0  0  0  0  0  0  0  0
    1.7837    0.5344    1.2747 H   0  0  0  0  0  0  0  0  0  0  0  0
  1  2  2  0  0  0  0
  1  6  1  0  0  0  0
  1 31  1  0  0  0  0
  2  7  1  0  0  0  0
  2 32  1  0  0  0  0
  3  4  2  0  0  0  0
  3 19  1  0  0  0  0
  3 33  1  0  0  0  0
  4  9  1  0  0  0  0
  4 11  1  0  0  0  0
  5  6  2  0  0  0  0
  5  8  1  0  0  0  0
  5 11  1  0  0  0  0
  6 27  1  0  0  0  0
  7  8  2  0  0  0  0
  7 28  1  0  0  0  0
  8 29  1  0  0  0  0
  9 20  2  0  0  0  0
  9 22  1  0  0  0  0
 10 19  2  0  0  0  0
 10 20  1  0  0  0  0
 10 23  1  0  0  0  0
 11 24  2  0  0  0  0
 12 14  1  0  0  0  0
 12 16  1  0  0  0  0
 12 34  1  0  0  0  0
 12 35  1  0  0  0  0
 13 15  1  0  0  0  0
 13 16  1  0  0  0  0
 13 36  1  0  0  0  0
 13 37  1  0  0  0  0
 14 21  1  0  0  0  0
 14 38  1  0  0  0  0
 14 39  1  0  0  0  0
 15 21  1  0  0  0  0
 15 40  1  0  0  0  0
 15 41  1  0  0  0  0
 16 23  1  0  0  0  0
 16 42  1  0  0  0  0
 17 27  1  0  0  0  0
 17 43  1  0  0  0  0
 17 44  1  0  0  0  0
 17 45  1  0  0  0  0
 18 30  1  0  0  0  0
 18 46  1  0  0  0  0
 18 47  1  0  0  0  0
 18 48  1  0  0  0  0
 21 30  1  0  0  0  0
 22 49  1  0  0  0  0
 22 50  1  0  0  0  0
 23 51  1  0  0  0  0
 25 30  2  0  0  0  0
 26 30  2  0  0  0  0
M  END
$$$$
DrugBank_3547
 OpenBabel01151909533D

 25 25  0  0  1  0  0  0  0  0999 V2000
   -1.9839    0.7428    2.0648 C   0  0  0  0  0  0  0  0  0  0  0  0
   -1.3031   -0.3152   -0.0761 C   0  0  0  0  0  0  0  0  0  0  0  0
    1.3403    0.5344    0.6526 C   0  0  0  0  0  0  0  0  0  0  0  0
   -0.8722    0.0676    1.3326 C   0  0  1  0  0  0  0  0  0  0  0  0
   -0.1122   -0.8259   -0.8828 C   0  0  2  0  0  0  0  0  0  0  0  0
    1.0539    0.1609   -0.7978 C   0  0  2  0  0  0  0  0  0  0  0  0
   -1.9605    1.8964    2.4673 O   0  0  0  0  0  0  0  0  0  0  0  0
    2.9109    1.4063   -2.9036 O   0  0  0  0  0  0  0  0  0  0  0  0
    4.1040    1.1275   -0.7069 O   0  0  0  0  0  0  0  0  0  0  0  0
    0.1717    1.0368    1.2959 O   0  0  0  0  0  0  0  0  0  0  0  0
   -3.0318   -0.1014    2.2281 O   0  0  0  0  0  0  0  0  0  0  0  0
   -0.5243   -0.9834   -2.2374 O   0  0  0  0  0  0  0  0  0  0  0  0
    4.4881   -0.4891   -2.5675 O   0  0  0  0  0  0  0  0  0  0  0  0
    2.2300   -0.4179   -1.3518 O   0  0  0  0  0  0  0  0  0  0  0  0
    3.4447    0.5480   -1.8624 S   0  0  0  0  0  0  0  0  0  0  0  0
   -2.0995   -1.0691   -0.0528 H   0  0  0  0  0  0  0  0  0  0  0  0
   -1.7342    0.5538   -0.5926 H   0  0  0  0  0  0  0  0  0  0  0  0
    1.7365   -0.3197    1.2167 H   0  0  0  0  0  0  0  0  0  0  0  0
    2.1121    1.3110    0.6920 H   0  0  0  0  0  0  0  0  0  0  0  0
   -0.5517   -0.8042    1.9144 H   0  0  0  0  0  0  0  0  0  0  0  0
    0.1940   -1.8137   -0.5174 H   0  0  0  0  0  0  0  0  0  0  0  0
    0.8188    1.0634   -1.3753 H   0  0  0  0  0  0  0  0  0  0  0  0
   -2.8569   -0.9829    1.8348 H   0  0  0  0  0  0  0  0  0  0  0  0
    0.2484   -1.3076   -2.7259 H   0  0  0  0  0  0  0  0  0  0  0  0
    4.7955   -1.2359   -2.0027 H   0  0  0  0  0  0  0  0  0  0  0  0
  1  4  1  0  0  0  0
  1  7  2  0  0  0  0
  1 11  1  0  0  0  0
  2  4  1  0  0  0  0
  2  5  1  0  0  0  0
  2 16  1  0  0  0  0
  2 17  1  0  0  0  0
  3  6  1  0  0  0  0
  3 10  1  0  0  0  0
  3 18  1  0  0  0  0
  3 19  1  0  0  0  0
  4 10  1  0  0  0  0
  4 20  1  1  0  0  0
  5  6  1  1  0  0  0
  5 12  1  0  0  0  0
  5 21  1  0  0  0  0
  6 14  1  0  0  0  0
  6 22  1  6  0  0  0
  8 15  2  0  0  0  0
  9 15  2  0  0  0  0
 11 23  1  0  0  0  0
 12 24  1  0  0  0  0
 13 15  1  0  0  0  0
 13 25  1  0  0  0  0
 14 15  1  0  0  0  0
M  END
$$$$
DrugBank_3565
 OpenBabel01151909533D

 25 24  0  0  1  0  0  0  0  0999 V2000
   -0.2640   -1.8429   -1.2744 C   0  0  0  0  0  0  0  0  0  0  0  0
    1.8088    3.4756    2.0480 C   0  0  0  0  0  0  0  0  0  0  0  0
    0.2420    1.2152   -0.3256 C   0  0  0  0  0  0  0  0  0  0  0  0
    0.3092   -0.0951    0.4727 C   0  0  0  0  0  0  0  0  0  0  0  0
    1.2749    2.2351    0.1428 C   0  0  0  0  0  0  0  0  0  0  0  0
   -0.7194   -1.1257   -0.0168 C   0  0  2  0  0  0  0  0  0  0  0  0
    1.0296    2.5859    1.5426 N   0  0  0  0  0  0  0  0  0  0  0  0
    2.8521    4.1679    1.4928 N   0  0  0  0  0  0  0  0  0  0  0  0
   -0.9023   -2.1637    0.9948 N   0  0  0  0  0  0  0  0  0  0  0  0
    0.4037   -2.8687   -1.2971 O   0  0  0  0  0  0  0  0  0  0  0  0
   -0.7067   -1.2280   -2.4029 O   0  0  0  0  0  0  0  0  0  0  0  0
    1.5015    3.8899    3.7391 S   0  0  0  0  0  0  0  0  0  0  0  0
    0.4183    1.0103   -1.3877 H   0  0  0  0  0  0  0  0  0  0  0  0
   -0.7645    1.6435   -0.2422 H   0  0  0  0  0  0  0  0  0  0  0  0
    0.1211    0.1261    1.5313 H   0  0  0  0  0  0  0  0  0  0  0  0
    1.3251   -0.5067    0.4110 H   0  0  0  0  0  0  0  0  0  0  0  0
    2.2909    1.8418    0.0339 H   0  0  0  0  0  0  0  0  0  0  0  0
    1.1990    3.1429   -0.4646 H   0  0  0  0  0  0  0  0  0  0  0  0
   -1.6699   -0.6148   -0.2089 H   0  0  0  0  0  0  0  0  0  0  0  0
    3.1390    4.0301    0.5303 H   0  0  0  0  0  0  0  0  0  0  0  0
    3.3746    4.8470    2.0358 H   0  0  0  0  0  0  0  0  0  0  0  0
   -1.2451   -3.0514    0.6985 H   0  0  0  0  0  0  0  0  0  0  0  0
   -0.8761   -1.8930    1.9537 H   0  0  0  0  0  0  0  0  0  0  0  0
   -1.2323   -0.4131   -2.2549 H   0  0  0  0  0  0  0  0  0  0  0  0
    0.4681    3.0550    3.9212 H   0  0  0  0  0  0  0  0  0  0  0  0
  1  6  1  0  0  0  0
  1 10  2  0  0  0  0
  1 11  1  0  0  0  0
  2  7  2  0  0  0  0
  2  8  1  0  0  0  0
  2 12  1  0  0  0  0
  3  4  1  0  0  0  0
  3  5  1  0  0  0  0
  3 13  1  0  0  0  0
  3 14  1  0  0  0  0
  4  6  1  0  0  0  0
  4 15  1  0  0  0  0
  4 16  1  0  0  0  0
  5  7  1  0  0  0  0
  5 17  1  0  0  0  0
  5 18  1  0  0  0  0
  6  9  1  0  0  0  0
  6 19  1  6  0  0  0
  8 20  1  0  0  0  0
  8 21  1  0  0  0  0
  9 22  1  0  0  0  0
  9 23  1  0  0  0  0
 11 24  1  0  0  0  0
 12 25  1  0  0  0  0
M  END
$$$$
DrugBank_3570
 OpenBabel01151909533D

 33 33  0  0  1  0  0  0  0  0999 V2000
    2.1197    0.3130    0.3837 C   0  0  1  0  0  0  0  0  0  0  0  0
    0.6869    0.0414    0.8552 C   0  0  1  0  0  0  0  0  0  0  0  0
    0.6029   -1.2536    1.6675 C   0  0  2  0  0  0  0  0  0  0  0  0
    1.2888   -2.4050    0.9284 C   0  0  2  0  0  0  0  0  0  0  0  0
    2.7422   -0.9387   -0.2473 C   0  0  2  0  0  0  0  0  0  0  0  0
    1.3223   -3.6851    1.7576 C   0  0  0  0  0  0  0  0  0  0  0  0
    2.0955    1.4082   -0.6240 N   0  0  0  0  0  0  0  0  0  0  0  0
    2.3300    3.4930    0.8754 O   0  0  0  0  0  0  0  0  0  0  0  0
    3.1555    3.5596   -1.4990 O   0  0  0  0  0  0  0  0  0  0  0  0
    2.9404   -6.0703    2.8390 O   0  0  0  0  0  0  0  0  0  0  0  0
    0.8518   -6.8494    1.6740 O   0  0  0  0  0  0  0  0  0  0  0  0
    2.6418   -2.0588    0.6316 O   0  0  0  0  0  0  0  0  0  0  0  0
    0.2651    1.1322    1.6758 O   0  0  0  0  0  0  0  0  0  0  0  0
   -0.7743   -1.5496    1.8835 O   0  0  0  0  0  0  0  0  0  0  0  0
    4.1182   -0.6639   -0.5091 O   0  0  0  0  0  0  0  0  0  0  0  0
    4.4244    2.3057    0.2345 O   0  0  0  0  0  0  0  0  0  0  0  0
    3.0605   -6.9661    0.5204 O   0  0  0  0  0  0  0  0  0  0  0  0
    1.9603   -4.6966    0.9996 O   0  0  0  0  0  0  0  0  0  0  0  0
    2.9622    2.8378   -0.2548 S   0  0  0  0  0  0  0  0  0  0  0  0
    2.1466   -6.1959    1.6308 S   0  0  0  0  0  0  0  0  0  0  0  0
    2.7321    0.6624    1.2249 H   0  0  0  0  0  0  0  0  0  0  0  0
   -0.0033   -0.0013    0.0028 H   0  0  0  0  0  0  0  0  0  0  0  0
    1.0673   -1.0879    2.6482 H   0  0  0  0  0  0  0  0  0  0  0  0
    0.7593   -2.6297   -0.0069 H   0  0  0  0  0  0  0  0  0  0  0  0
    2.2609   -1.1803   -1.2039 H   0  0  0  0  0  0  0  0  0  0  0  0
    0.3065   -4.0004    1.9963 H   0  0  0  0  0  0  0  0  0  0  0  0
    1.8815   -3.5178    2.6782 H   0  0  0  0  0  0  0  0  0  0  0  0
    2.1649    1.0627   -1.5848 H   0  0  0  0  0  0  0  0  0  0  0  0
    0.3110    1.9247    1.1207 H   0  0  0  0  0  0  0  0  0  0  0  0
   -1.1452   -0.7979    2.3712 H   0  0  0  0  0  0  0  0  0  0  0  0
    4.4874   -1.4673   -0.9060 H   0  0  0  0  0  0  0  0  0  0  0  0
    4.8879    1.7006   -0.3904 H   0  0  0  0  0  0  0  0  0  0  0  0
    2.7046   -6.9684   -0.3986 H   0  0  0  0  0  0  0  0  0  0  0  0
  1  2  1  1  0  0  0
  1  7  1  0  0  0  0
  1 21  1  0  0  0  0
  2  3  1  1  0  0  0
  2 13  1  0  0  0  0
  2 22  1  0  0  0  0
  3  4  1  6  0  0  0
  3 14  1  0  0  0  0
  3 23  1  0  0  0  0
  4  6  1  0  0  0  0
  4 12  1  0  0  0  0
  4 24  1  6  0  0  0
  5  1  1  1  0  0  0
  5 12  1  0  0  0  0
  5 15  1  0  0  0  0
  5 25  1  0  0  0  0
  6 18  1  0  0  0  0
  6 26  1  0  0  0  0
  6 27  1  0  0  0  0
  7 19  1  0  0  0  0
  7 28  1  0  0  0  0
  8 19  2  0  0  0  0
  9 19  2  0  0  0  0
 10 20  2  0  0  0  0
 11 20  2  0  0  0  0
 13 29  1  0  0  0  0
 14 30  1  0  0  0  0
 15 31  1  0  0  0  0
 16 19  1  0  0  0  0
 16 32  1  0  0  0  0
 17 20  1  0  0  0  0
 17 33  1  0  0  0  0
 18 20  1  0  0  0  0
M  END
$$$$
DrugBank_3576
 OpenBabel01151909533D

 43 42  0  0  0  0  0  0  0  0999 V2000
    1.1095    5.9046    4.0092 C   0  0  0  0  0  0  0  0  0  0  0  0
    1.9638    4.8423    3.3340 C   0  0  0  0  0  0  0  0  0  0  0  0
    2.6423    3.9368    4.3627 C   0  0  0  0  0  0  0  0  0  0  0  0
    3.5759    2.8945    3.7385 C   0  0  0  0  0  0  0  0  0  0  0  0
    4.2322    1.9730    4.7696 C   0  0  0  0  0  0  0  0  0  0  0  0
    5.0972    0.8741    4.1418 C   0  0  0  0  0  0  0  0  0  0  0  0
    5.7353   -0.1179    5.1203 C   0  0  0  0  0  0  0  0  0  0  0  0
    6.6570   -1.1326    4.4395 C   0  0  0  0  0  0  0  0  0  0  0  0
    7.2846   -2.1317    5.4169 C   0  0  0  0  0  0  0  0  0  0  0  0
    8.1875   -3.1622    4.7341 C   0  0  0  0  0  0  0  0  0  0  0  0
    8.7654   -4.1517    5.7516 C   0  0  0  0  0  0  0  0  0  0  0  0
    9.6896   -5.1736    5.1006 C   0  0  0  0  0  0  0  0  0  0  0  0
   10.5360   -8.1026    4.7073 O   0  0  0  0  0  0  0  0  0  0  0  0
   12.5156   -6.6643    5.2898 O   0  0  0  0  0  0  0  0  0  0  0  0
   11.4422   -8.0996    7.0249 O   0  0  0  0  0  0  0  0  0  0  0  0
   10.2118   -6.0523    6.0867 O   0  0  0  0  0  0  0  0  0  0  0  0
   11.2366   -7.2487    5.6483 S   0  0  0  0  0  0  0  0  0  0  0  0
    1.7103    6.5196    4.6869 H   0  0  0  0  0  0  0  0  0  0  0  0
    0.6625    6.5644    3.2590 H   0  0  0  0  0  0  0  0  0  0  0  0
    0.2992    5.4478    4.5862 H   0  0  0  0  0  0  0  0  0  0  0  0
    1.3253    4.2528    2.6679 H   0  0  0  0  0  0  0  0  0  0  0  0
    2.7211    5.3330    2.7117 H   0  0  0  0  0  0  0  0  0  0  0  0
    1.8826    3.4327    4.9726 H   0  0  0  0  0  0  0  0  0  0  0  0
    3.2346    4.5572    5.0471 H   0  0  0  0  0  0  0  0  0  0  0  0
    4.3520    3.4369    3.1866 H   0  0  0  0  0  0  0  0  0  0  0  0
    3.0225    2.2966    3.0044 H   0  0  0  0  0  0  0  0  0  0  0  0
    4.8292    2.5657    5.4720 H   0  0  0  0  0  0  0  0  0  0  0  0
    3.4573    1.4780    5.3657 H   0  0  0  0  0  0  0  0  0  0  0  0
    5.8964    1.3439    3.5550 H   0  0  0  0  0  0  0  0  0  0  0  0
    4.4795    0.3161    3.4268 H   0  0  0  0  0  0  0  0  0  0  0  0
    4.9501   -0.6334    5.6829 H   0  0  0  0  0  0  0  0  0  0  0  0
    6.3140    0.4563    5.8546 H   0  0  0  0  0  0  0  0  0  0  0  0
    7.4676   -0.5957    3.9316 H   0  0  0  0  0  0  0  0  0  0  0  0
    6.1082   -1.6845    3.6680 H   0  0  0  0  0  0  0  0  0  0  0  0
    7.8753   -1.5671    6.1490 H   0  0  0  0  0  0  0  0  0  0  0  0
    6.4941   -2.6448    5.9778 H   0  0  0  0  0  0  0  0  0  0  0  0
    9.0071   -2.6479    4.2180 H   0  0  0  0  0  0  0  0  0  0  0  0
    7.6189   -3.7110    3.9756 H   0  0  0  0  0  0  0  0  0  0  0  0
    7.9377   -4.6748    6.2458 H   0  0  0  0  0  0  0  0  0  0  0  0
    9.3224   -3.6060    6.5219 H   0  0  0  0  0  0  0  0  0  0  0  0
   10.5283   -4.6640    4.6156 H   0  0  0  0  0  0  0  0  0  0  0  0
    9.1548   -5.7634    4.3492 H   0  0  0  0  0  0  0  0  0  0  0  0
   11.7549   -7.5831    7.8038 H   0  0  0  0  0  0  0  0  0  0  0  0
  1  2  1  0  0  0  0
  1 18  1  0  0  0  0
  1 19  1  0  0  0  0
  1 20  1  0  0  0  0
  2  3  1  0  0  0  0
  2 21  1  0  0  0  0
  2 22  1  0  0  0  0
  3  4  1  0  0  0  0
  3 23  1  0  0  0  0
  3 24  1  0  0  0  0
  4  5  1  0  0  0  0
  4 25  1  0  0  0  0
  4 26  1  0  0  0  0
  5  6  1  0  0  0  0
  5 27  1  0  0  0  0
  5 28  1  0  0  0  0
  6  7  1  0  0  0  0
  6 29  1  0  0  0  0
  6 30  1  0  0  0  0
  7  8  1  0  0  0  0
  7 31  1  0  0  0  0
  7 32  1  0  0  0  0
  8  9  1  0  0  0  0
  8 33  1  0  0  0  0
  8 34  1  0  0  0  0
  9 10  1  0  0  0  0
  9 35  1  0  0  0  0
  9 36  1  0  0  0  0
 10 11  1  0  0  0  0
 10 37  1  0  0  0  0
 10 38  1  0  0  0  0
 11 12  1  0  0  0  0
 11 39  1  0  0  0  0
 11 40  1  0  0  0  0
 12 16  1  0  0  0  0
 12 41  1  0  0  0  0
 12 42  1  0  0  0  0
 13 17  2  0  0  0  0
 14 17  2  0  0  0  0
 15 17  1  0  0  0  0
 15 43  1  0  0  0  0
 16 17  1  0  0  0  0
M  END
$$$$
DrugBank_6026
 OpenBabel01151909533D

 56 58  0  0  1  0  0  0  0  0999 V2000
    1.0797   -3.4670   -5.9680 C   0  0  0  0  0  0  0  0  0  0  0  0
    0.8352   -4.4357   -6.9413 C   0  0  0  0  0  0  0  0  0  0  0  0
   -1.1897    5.0174   -1.8899 C   0  0  0  0  0  0  0  0  0  0  0  0
   -1.2407   -2.7989   -6.0501 C   0  0  0  0  0  0  0  0  0  0  0  0
   -0.4641    4.0261   -1.1853 C   0  0  0  0  0  0  0  0  0  0  0  0
    0.0417   -2.6486   -5.5223 C   0  0  0  0  0  0  0  0  0  0  0  0
   -0.4472   -4.5860   -7.4691 C   0  0  0  0  0  0  0  0  0  0  0  0
   -1.4851   -3.7676   -7.0235 C   0  0  0  0  0  0  0  0  0  0  0  0
   -1.9415    4.3731   -2.8491 C   0  0  0  0  0  0  0  0  0  0  0  0
   -0.7902    2.8028   -1.7301 C   0  0  0  0  0  0  0  0  0  0  0  0
   -2.8581    4.8025   -3.8524 C   0  0  0  0  0  0  0  0  0  0  0  0
   -3.4418    3.8906   -4.6538 C   0  0  0  0  0  0  0  0  0  0  0  0
   -3.1594    2.4707   -4.5210 C   0  0  0  0  0  0  0  0  0  0  0  0
   -2.2966    2.0610   -3.5770 C   0  0  0  0  0  0  0  0  0  0  0  0
    0.4510    4.2270   -0.0973 C   0  0  0  0  0  0  0  0  0  0  0  0
    0.1079   -2.1208   -3.0637 C   0  0  0  0  0  0  0  0  0  0  0  0
   -2.0131    0.5349   -0.0082 C   0  0  0  0  0  0  0  0  0  0  0  0
    1.9093    0.2705   -0.0347 C   0  0  0  0  0  0  0  0  0  0  0  0
    0.3051   -1.6038   -4.4689 C   0  0  0  0  0  0  0  0  0  0  0  0
    0.1865   -1.4354   -0.7998 C   0  0  0  0  0  0  0  0  0  0  0  0
   -0.5469    0.9385   -0.0897 C   0  0  1  0  0  0  0  0  0  0  0  0
    0.4582   -0.2309    0.1315 C   0  0  2  0  0  0  0  0  0  0  0  0
   -1.6934    3.0077   -2.7484 N   0  0  0  0  0  0  0  0  0  0  0  0
   -0.3572    1.5339   -1.4023 N   0  0  0  0  0  0  0  0  0  0  0  0
    0.7284    5.3435    0.3769 O   0  0  0  0  0  0  0  0  0  0  0  0
   -0.2024   -3.2664   -2.7663 O   0  0  0  0  0  0  0  0  0  0  0  0
   -2.6695    0.1026   -0.9478 O   0  0  0  0  0  0  0  0  0  0  0  0
    1.6111   -1.5252    2.1735 O   0  0  0  0  0  0  0  0  0  0  0  0
   -0.6728   -5.5358   -8.4195 O   0  0  0  0  0  0  0  0  0  0  0  0
   -2.7415   -3.9044   -7.5321 O   0  0  0  0  0  0  0  0  0  0  0  0
   -2.5369    0.7043    1.2328 O   0  0  0  0  0  0  0  0  0  0  0  0
    0.4417    0.6775    2.4423 O   0  0  0  0  0  0  0  0  0  0  0  0
    0.3335   -1.1016   -2.1770 O   0  0  0  0  0  0  0  0  0  0  0  0
    0.3312   -0.8314    1.9031 S   0  0  1  0  0  0  0  0  0  0  0  0
    2.0815   -3.3581   -5.5613 H   0  0  0  0  0  0  0  0  0  0  0  0
    1.6484   -5.0695   -7.2843 H   0  0  0  0  0  0  0  0  0  0  0  0
   -1.1674    6.0854   -1.7188 H   0  0  0  0  0  0  0  0  0  0  0  0
   -2.0517   -2.1626   -5.7040 H   0  0  0  0  0  0  0  0  0  0  0  0
   -3.0778    5.8588   -3.9627 H   0  0  0  0  0  0  0  0  0  0  0  0
   -4.1422    4.1954   -5.4239 H   0  0  0  0  0  0  0  0  0  0  0  0
   -3.6517    1.7729   -5.1871 H   0  0  0  0  0  0  0  0  0  0  0  0
   -2.0507    1.0155   -3.4359 H   0  0  0  0  0  0  0  0  0  0  0  0
    0.9455    3.3276    0.3523 H   0  0  0  0  0  0  0  0  0  0  0  0
    2.1142    1.1243    0.6203 H   0  0  0  0  0  0  0  0  0  0  0  0
    2.6307   -0.5189    0.2076 H   0  0  0  0  0  0  0  0  0  0  0  0
    2.1187    0.5905   -1.0621 H   0  0  0  0  0  0  0  0  0  0  0  0
    1.3346   -1.2390   -4.5666 H   0  0  0  0  0  0  0  0  0  0  0  0
   -0.3659   -0.7510   -4.6259 H   0  0  0  0  0  0  0  0  0  0  0  0
    0.8523   -2.2792   -0.5884 H   0  0  0  0  0  0  0  0  0  0  0  0
   -0.8419   -1.7901   -0.6783 H   0  0  0  0  0  0  0  0  0  0  0  0
   -0.3656    1.7370    0.6400 H   0  0  0  0  0  0  0  0  0  0  0  0
    0.1177    0.9824   -2.1015 H   0  0  0  0  0  0  0  0  0  0  0  0
   -1.6042   -5.5240   -8.6904 H   0  0  0  0  0  0  0  0  0  0  0  0
   -3.3417   -3.2636   -7.1195 H   0  0  0  0  0  0  0  0  0  0  0  0
   -1.9210    1.0569    1.9094 H   0  0  0  0  0  0  0  0  0  0  0  0
    0.6195    0.6499    3.4116 H   0  0  0  0  0  0  0  0  0  0  0  0
  1  2  2  0  0  0  0
  1  6  1  0  0  0  0
  1 35  1  0  0  0  0
  2  7  1  0  0  0  0
  2 36  1  0  0  0  0
  3  5  1  0  0  0  0
  3  9  2  0  0  0  0
  3 37  1  0  0  0  0
  4  6  2  0  0  0  0
  4  8  1  0  0  0  0
  4 38  1  0  0  0  0
  5 10  2  0  0  0  0
  5 15  1  0  0  0  0
  6 19  1  0  0  0  0
  7  8  2  0  0  0  0
  7 29  1  0  0  0  0
  8 30  1  0  0  0  0
  9 11  1  0  0  0  0
  9 23  1  0  0  0  0
 10 23  1  0  0  0  0
 10 24  1  0  0  0  0
 11 12  2  0  0  0  0
 11 39  1  0  0  0  0
 12 13  1  0  0  0  0
 12 40  1  0  0  0  0
 13 14  2  0  0  0  0
 13 41  1  0  0  0  0
 14 23  1  0  0  0  0
 14 42  1  0  0  0  0
 15 25  2  0  0  0  0
 15 43  1  0  0  0  0
 16 19  1  0  0  0  0
 16 26  2  0  0  0  0
 16 33  1  0  0  0  0
 17 21  1  0  0  0  0
 17 27  2  0  0  0  0
 17 31  1  0  0  0  0
 18 44  1  0  0  0  0
 18 45  1  0  0  0  0
 18 46  1  0  0  0  0
 19 47  1  0  0  0  0
 19 48  1  0  0  0  0
 20 22  1  0  0  0  0
 20 33  1  0  0  0  0
 20 49  1  0  0  0  0
 20 50  1  0  0  0  0
 21 22  1  0  0  0  0
 21 24  1  0  0  0  0
 21 51  1  1  0  0  0
 22 18  1  6  0  0  0
 22 34  1  0  0  0  0
 24 52  1  0  0  0  0
 29 53  1  0  0  0  0
 30 54  1  0  0  0  0
 31 55  1  0  0  0  0
 32 34  1  0  0  0  0
 32 56  1  0  0  0  0
 34 28  2  1  0  0  0
M  END
$$$$
DrugBank_3581
 OpenBabel01151909533D

 21 22  0  0  1  0  0  0  0  0999 V2000
    0.1964   -2.7733    0.6637 C   0  0  0  0  0  0  0  0  0  0  0  0
   -1.1781   -2.5691    0.6475 C   0  0  0  0  0  0  0  0  0  0  0  0
    1.0608   -1.6921    0.4904 C   0  0  0  0  0  0  0  0  0  0  0  0
   -1.6845   -1.2860    0.4520 C   0  0  0  0  0  0  0  0  0  0  0  0
    0.5687   -0.3871    0.2980 C   0  0  0  0  0  0  0  0  0  0  0  0
   -0.8214   -0.1974    0.2651 C   0  0  0  0  0  0  0  0  0  0  0  0
    1.5725    0.7219    0.1223 C   0  0  1  0  0  0  0  0  0  0  0  0
   -0.6971    2.1084   -0.4109 C   0  0  1  0  0  0  0  0  0  0  0  0
   -0.5734    2.0844   -1.8685 N   0  0  0  0  0  0  0  0  0  0  0  0
   -1.4589    1.0038    0.0971 O   0  0  0  0  0  0  0  0  0  0  0  0
    2.1290    0.6223   -1.1852 O   0  0  0  0  0  0  0  0  0  0  0  0
    0.8861    2.3642    0.4283 S   0  0  0  0  0  0  0  0  0  0  0  0
    0.5976   -3.7712    0.8136 H   0  0  0  0  0  0  0  0  0  0  0  0
   -1.8556   -3.4063    0.7861 H   0  0  0  0  0  0  0  0  0  0  0  0
    2.1337   -1.8722    0.5096 H   0  0  0  0  0  0  0  0  0  0  0  0
   -2.7619   -1.1380    0.4410 H   0  0  0  0  0  0  0  0  0  0  0  0
    2.3904    0.5871    0.8388 H   0  0  0  0  0  0  0  0  0  0  0  0
   -1.2948    2.9936   -0.1718 H   0  0  0  0  0  0  0  0  0  0  0  0
    0.1396    2.6406   -2.2852 H   0  0  0  0  0  0  0  0  0  0  0  0
   -1.3193    1.6848   -2.3933 H   0  0  0  0  0  0  0  0  0  0  0  0
    2.7692    1.3460   -1.2695 H   0  0  0  0  0  0  0  0  0  0  0  0
  1  2  2  0  0  0  0
  1  3  1  0  0  0  0
  1 13  1  0  0  0  0
  2  4  1  0  0  0  0
  2 14  1  0  0  0  0
  3  5  2  0  0  0  0
  3 15  1  0  0  0  0
  4  6  2  0  0  0  0
  4 16  1  0  0  0  0
  5  6  1  0  0  0  0
  5  7  1  0  0  0  0
  6 10  1  0  0  0  0
  7 11  1  0  0  0  0
  7 12  1  0  0  0  0
  7 17  1  1  0  0  0
  8  9  1  0  0  0  0
  8 10  1  0  0  0  0
  8 12  1  0  0  0  0
  8 18  1  1  0  0  0
  9 19  1  0  0  0  0
  9 20  1  0  0  0  0
 11 21  1  0  0  0  0
M  END
$$$$
DrugBank_6032
 OpenBabel01151909533D

 42 45  0  0  0  0  0  0  0  0999 V2000
    7.2290    0.3047    2.1187 C   0  0  0  0  0  0  0  0  0  0  0  0
    6.1574   -1.8492    2.3411 C   0  0  0  0  0  0  0  0  0  0  0  0
    0.3203    5.9339   -0.0223 C   0  0  0  0  0  0  0  0  0  0  0  0
   -0.3146    4.6898    0.1051 C   0  0  0  0  0  0  0  0  0  0  0  0
    5.9982    0.8855    1.8132 C   0  0  0  0  0  0  0  0  0  0  0  0
    4.9266   -1.2684    2.0357 C   0  0  0  0  0  0  0  0  0  0  0  0
    3.7202    7.0025    0.3201 C   0  0  0  0  0  0  0  0  0  0  0  0
    1.8361    3.7145    0.6252 C   0  0  0  0  0  0  0  0  0  0  0  0
    7.3087   -1.0627    2.3826 C   0  0  0  0  0  0  0  0  0  0  0  0
    1.7258    6.0696    0.1754 C   0  0  0  0  0  0  0  0  0  0  0  0
    0.4629    3.6027    0.4280 C   0  0  0  0  0  0  0  0  0  0  0  0
    4.8470    0.0990    1.7717 C   0  0  0  0  0  0  0  0  0  0  0  0
    2.4853    4.9325    0.5041 C   0  0  0  0  0  0  0  0  0  0  0  0
    2.3100    2.3868    0.9453 C   0  0  0  0  0  0  0  0  0  0  0  0
    1.1117    1.4628    0.9252 C   0  0  0  0  0  0  0  0  0  0  0  0
   11.6127   -1.7859    3.5252 C   0  0  0  0  0  0  0  0  0  0  0  0
    8.6242   -1.6847    2.7088 C   0  0  0  0  0  0  0  0  0  0  0  0
    2.4536    7.2467    0.0752 N   0  0  0  0  0  0  0  0  0  0  0  0
    3.5076    2.0037    1.2071 N   0  0  0  0  0  0  0  0  0  0  0  0
    0.0425    2.2806    0.6048 N   0  0  0  0  0  0  0  0  0  0  0  0
    3.6078    0.6834    1.4662 N   0  0  0  0  0  0  0  0  0  0  0  0
   10.5613   -2.0010    4.5356 N   0  0  0  0  0  0  0  0  0  0  0  0
    1.1782    0.2755    1.1546 O   0  0  0  0  0  0  0  0  0  0  0  0
    9.2653    0.2324    4.3714 O   0  0  0  0  0  0  0  0  0  0  0  0
    8.1059   -1.8217    5.2618 O   0  0  0  0  0  0  0  0  0  0  0  0
    4.1323    5.3815    0.6818 S   0  0  0  0  0  0  0  0  0  0  0  0
    9.0583   -1.2070    4.3502 S   0  0  0  0  0  0  0  0  0  0  0  0
    8.1209    0.9247    2.1477 H   0  0  0  0  0  0  0  0  0  0  0  0
    6.2101   -2.9156    2.5436 H   0  0  0  0  0  0  0  0  0  0  0  0
   -0.2700    6.8110   -0.2759 H   0  0  0  0  0  0  0  0  0  0  0  0
   -1.3845    4.6007   -0.0483 H   0  0  0  0  0  0  0  0  0  0  0  0
    5.9475    1.9516    1.6078 H   0  0  0  0  0  0  0  0  0  0  0  0
    4.0361   -1.8909    2.0054 H   0  0  0  0  0  0  0  0  0  0  0  0
    4.4689    7.7825    0.2956 H   0  0  0  0  0  0  0  0  0  0  0  0
   11.5824   -0.7542    3.1652 H   0  0  0  0  0  0  0  0  0  0  0  0
   11.4647   -2.4592    2.6765 H   0  0  0  0  0  0  0  0  0  0  0  0
   12.5980   -1.9789    3.9579 H   0  0  0  0  0  0  0  0  0  0  0  0
    9.4220   -1.3472    2.0374 H   0  0  0  0  0  0  0  0  0  0  0  0
    8.5866   -2.7796    2.6754 H   0  0  0  0  0  0  0  0  0  0  0  0
   -0.9201    1.9801    0.5078 H   0  0  0  0  0  0  0  0  0  0  0  0
    2.7886    0.0862    1.4436 H   0  0  0  0  0  0  0  0  0  0  0  0
   10.5368   -2.9562    4.9154 H   0  0  0  0  0  0  0  0  0  0  0  0
  1  5  2  0  0  0  0
  1  9  1  0  0  0  0
  1 28  1  0  0  0  0
  2  6  1  0  0  0  0
  2  9  2  0  0  0  0
  2 29  1  0  0  0  0
  3  4  2  0  0  0  0
  3 10  1  0  0  0  0
  3 30  1  0  0  0  0
  4 11  1  0  0  0  0
  4 31  1  0  0  0  0
  5 12  1  0  0  0  0
  5 32  1  0  0  0  0
  6 12  2  0  0  0  0
  6 33  1  0  0  0  0
  7 18  2  0  0  0  0
  7 26  1  0  0  0  0
  7 34  1  0  0  0  0
  8 11  2  0  0  0  0
  8 13  1  0  0  0  0
  8 14  1  0  0  0  0
  9 17  1  0  0  0  0
 10 13  2  0  0  0  0
 10 18  1  0  0  0  0
 11 20  1  0  0  0  0
 12 21  1  0  0  0  0
 13 26  1  0  0  0  0
 14 15  1  0  0  0  0
 14 19  2  0  0  0  0
 15 20  1  0  0  0  0
 15 23  2  0  0  0  0
 16 22  1  0  0  0  0
 16 35  1  0  0  0  0
 16 36  1  0  0  0  0
 16 37  1  0  0  0  0
 17 27  1  0  0  0  0
 17 38  1  0  0  0  0
 17 39  1  0  0  0  0
 19 21  1  0  0  0  0
 20 40  1  0  0  0  0
 21 41  1  0  0  0  0
 22 27  1  0  0  0  0
 22 42  1  0  0  0  0
 24 27  2  0  0  0  0
 25 27  2  0  0  0  0
M  END
$$$$
DrugBank_889
 OpenBabel01151909533D

 28 27  0  0  0  0  0  0  0  0999 V2000
   -1.9679   -3.3964   -2.8712 C   0  0  0  0  0  0  0  0  0  0  0  0
    5.0309    3.5391    2.3521 C   0  0  0  0  0  0  0  0  0  0  0  0
    0.9511   -0.4136   -0.3581 C   0  0  0  0  0  0  0  0  0  0  0  0
    2.0726    0.6018   -0.1689 C   0  0  0  0  0  0  0  0  0  0  0  0
    0.8043   -0.8239   -1.8164 C   0  0  0  0  0  0  0  0  0  0  0  0
    2.2475    0.9797    1.2950 C   0  0  0  0  0  0  0  0  0  0  0  0
    0.4505   -3.2088   -3.8546 O   0  0  0  0  0  0  0  0  0  0  0  0
   -1.1772   -1.3020   -4.2275 O   0  0  0  0  0  0  0  0  0  0  0  0
    4.2756    1.4112    3.6757 O   0  0  0  0  0  0  0  0  0  0  0  0
    2.6336    3.3192    3.3796 O   0  0  0  0  0  0  0  0  0  0  0  0
   -0.2626   -1.7560   -1.9262 O   0  0  0  0  0  0  0  0  0  0  0  0
    3.3128    1.9134    1.4045 O   0  0  0  0  0  0  0  0  0  0  0  0
   -0.6297   -2.3573   -3.3994 S   0  0  0  0  0  0  0  0  0  0  0  0
    3.7075    2.4828    2.8833 S   0  0  0  0  0  0  0  0  0  0  0  0
   -2.7839   -2.7588   -2.5275 H   0  0  0  0  0  0  0  0  0  0  0  0
   -2.2881   -4.0033   -3.7195 H   0  0  0  0  0  0  0  0  0  0  0  0
   -1.6107   -4.0316   -2.0593 H   0  0  0  0  0  0  0  0  0  0  0  0
    4.6072    4.3480    1.7546 H   0  0  0  0  0  0  0  0  0  0  0  0
    5.5294    3.9379    3.2368 H   0  0  0  0  0  0  0  0  0  0  0  0
    5.7260    2.9466    1.7555 H   0  0  0  0  0  0  0  0  0  0  0  0
    1.1390   -1.3054    0.2531 H   0  0  0  0  0  0  0  0  0  0  0  0
   -0.0000    0.0000    0.0000 H   0  0  0  0  0  0  0  0  0  0  0  0
    1.8691    1.5062   -0.7557 H   0  0  0  0  0  0  0  0  0  0  0  0
    3.0177    0.2003   -0.5557 H   0  0  0  0  0  0  0  0  0  0  0  0
    0.5755    0.0428   -2.4448 H   0  0  0  0  0  0  0  0  0  0  0  0
    1.7202   -1.2983   -2.1831 H   0  0  0  0  0  0  0  0  0  0  0  0
    2.4920    0.1001    1.8990 H   0  0  0  0  0  0  0  0  0  0  0  0
    1.3374    1.4419    1.6907 H   0  0  0  0  0  0  0  0  0  0  0  0
  1 13  1  0  0  0  0
  1 15  1  0  0  0  0
  1 16  1  0  0  0  0
  1 17  1  0  0  0  0
  2 14  1  0  0  0  0
  2 18  1  0  0  0  0
  2 19  1  0  0  0  0
  2 20  1  0  0  0  0
  3  4  1  0  0  0  0
  3  5  1  0  0  0  0
  3 21  1  0  0  0  0
  3 22  1  0  0  0  0
  4  6  1  0  0  0  0
  4 23  1  0  0  0  0
  4 24  1  0  0  0  0
  5 11  1  0  0  0  0
  5 25  1  0  0  0  0
  5 26  1  0  0  0  0
  6 12  1  0  0  0  0
  6 27  1  0  0  0  0
  6 28  1  0  0  0  0
  7 13  2  0  0  0  0
  8 13  2  0  0  0  0
  9 14  2  0  0  0  0
 10 14  2  0  0  0  0
 11 13  1  0  0  0  0
 12 14  1  0  0  0  0
M  END
$$$$
DrugBank_891
 OpenBabel01151909533D

 28 28  0  0  0  0  0  0  0  0999 V2000
   -1.0920   -3.0037    2.3868 C   0  0  0  0  0  0  0  0  0  0  0  0
   -1.1237   -1.9296    1.4975 C   0  0  0  0  0  0  0  0  0  0  0  0
   -1.8814   -2.9808    3.5366 C   0  0  0  0  0  0  0  0  0  0  0  0
   -2.7340   -0.8095    2.9080 C   0  0  0  0  0  0  0  0  0  0  0  0
   -1.9447   -0.8324    1.7581 C   0  0  0  0  0  0  0  0  0  0  0  0
   -2.7024   -1.8837    3.7972 C   0  0  0  0  0  0  0  0  0  0  0  0
   -3.8155   -0.6647   -0.5393 C   0  0  0  0  0  0  0  0  0  0  0  0
   -1.0264    0.0549   -0.3733 C   0  0  0  0  0  0  0  0  0  0  0  0
   -1.5589    1.6115    1.5264 C   0  0  0  0  0  0  0  0  0  0  0  0
   -3.3733    0.5769    0.2038 C   0  0  0  0  0  0  0  0  0  0  0  0
   -1.9788    0.3467    0.7827 N   0  3  0  0  0  0  0  0  0  0  0  0
   -3.4729   -1.8615    4.9188 O   0  0  0  0  0  0  0  0  0  0  0  0
   -0.4527   -3.8579    2.1841 H   0  0  0  0  0  0  0  0  0  0  0  0
   -0.5050   -1.9564    0.6044 H   0  0  0  0  0  0  0  0  0  0  0  0
   -1.8528   -3.8208    4.2253 H   0  0  0  0  0  0  0  0  0  0  0  0
   -3.3752    0.0441    3.1153 H   0  0  0  0  0  0  0  0  0  0  0  0
   -3.1362   -0.8683   -1.3728 H   0  0  0  0  0  0  0  0  0  0  0  0
   -3.8165   -1.5402    0.1182 H   0  0  0  0  0  0  0  0  0  0  0  0
   -4.8246   -0.5438   -0.9469 H   0  0  0  0  0  0  0  0  0  0  0  0
   -1.0627    0.9040   -1.0583 H   0  0  0  0  0  0  0  0  0  0  0  0
   -0.0250   -0.0715    0.0426 H   0  0  0  0  0  0  0  0  0  0  0  0
   -1.3661   -0.8595   -0.8634 H   0  0  0  0  0  0  0  0  0  0  0  0
   -1.5887    2.4411    0.8175 H   0  0  0  0  0  0  0  0  0  0  0  0
   -2.2648    1.7683    2.3441 H   0  0  0  0  0  0  0  0  0  0  0  0
   -0.5471    1.4557    1.9056 H   0  0  0  0  0  0  0  0  0  0  0  0
   -4.0363    0.8035    1.0433 H   0  0  0  0  0  0  0  0  0  0  0  0
   -3.3065    1.4433   -0.4601 H   0  0  0  0  0  0  0  0  0  0  0  0
   -3.9845   -1.0377    4.9593 H   0  0  0  0  0  0  0  0  0  0  0  0
  1  2  2  0  0  0  0
  1  3  1  0  0  0  0
  1 13  1  0  0  0  0
  2  5  1  0  0  0  0
  2 14  1  0  0  0  0
  3  6  2  0  0  0  0
  3 15  1  0  0  0  0
  4  5  2  0  0  0  0
  4  6  1  0  0  0  0
  4 16  1  0  0  0  0
  5 11  1  0  0  0  0
  6 12  1  0  0  0  0
  7 10  1  0  0  0  0
  7 17  1  0  0  0  0
  7 18  1  0  0  0  0
  7 19  1  0  0  0  0
  8 11  1  0  0  0  0
  8 20  1  0  0  0  0
  8 21  1  0  0  0  0
  8 22  1  0  0  0  0
  9 11  1  0  0  0  0
  9 23  1  0  0  0  0
  9 24  1  0  0  0  0
  9 25  1  0  0  0  0
 10 11  1  0  0  0  0
 10 26  1  0  0  0  0
 10 27  1  0  0  0  0
 12 28  1  0  0  0  0
M  CHG  1  11   1
M  END
$$$$
DrugBank_3590
 OpenBabel01151909533D

 23 23  0  0  1  0  0  0  0  0999 V2000
   -0.8312    0.9336   -0.0200 C   0  0  0  0  0  0  0  0  0  0  0  0
    0.4565    1.2631   -0.1988 C   0  0  0  0  0  0  0  0  0  0  0  0
    0.7886    2.6832   -0.3199 C   0  0  0  0  0  0  0  0  0  0  0  0
    1.1073   -0.9898   -0.5050 C   0  0  0  0  0  0  0  0  0  0  0  0
   -1.2676   -0.4868    0.1827 C   0  0  2  0  0  0  0  0  0  0  0  0
   -0.0735   -1.4277    0.3602 C   0  0  2  0  0  0  0  0  0  0  0  0
   -0.0238    3.5900   -0.2697 O   0  0  0  0  0  0  0  0  0  0  0  0
    0.6142   -3.9160    1.7125 O   0  0  0  0  0  0  0  0  0  0  0  0
    2.5979   -2.4376    2.1661 O   0  0  0  0  0  0  0  0  0  0  0  0
    1.4991    0.3692   -0.2653 O   0  0  0  0  0  0  0  0  0  0  0  0
    2.1197    2.8250   -0.4939 O   0  0  0  0  0  0  0  0  0  0  0  0
   -2.0099   -0.8986   -0.9627 O   0  0  0  0  0  0  0  0  0  0  0  0
    0.8213   -2.7332    3.8921 O   0  0  0  0  0  0  0  0  0  0  0  0
    0.3306   -1.4462    1.7288 O   0  0  0  0  0  0  0  0  0  0  0  0
    1.1802   -2.7163    2.3008 S   0  0  0  0  0  0  0  0  0  0  0  0
   -1.6043    1.6970    0.0097 H   0  0  0  0  0  0  0  0  0  0  0  0
    1.9836   -1.6099   -0.2868 H   0  0  0  0  0  0  0  0  0  0  0  0
    0.8754   -1.1011   -1.5712 H   0  0  0  0  0  0  0  0  0  0  0  0
   -1.9301   -0.5380    1.0550 H   0  0  0  0  0  0  0  0  0  0  0  0
   -0.3503   -2.4609    0.0865 H   0  0  0  0  0  0  0  0  0  0  0  0
    2.3813    3.7666   -0.5795 H   0  0  0  0  0  0  0  0  0  0  0  0
   -2.2776   -1.8170   -0.8031 H   0  0  0  0  0  0  0  0  0  0  0  0
    1.0009   -1.8957    4.3795 H   0  0  0  0  0  0  0  0  0  0  0  0
  1  2  2  0  0  0  0
  1  5  1  0  0  0  0
  1 16  1  0  0  0  0
  2  3  1  0  0  0  0
  2 10  1  0  0  0  0
  3  7  2  0  0  0  0
  3 11  1  0  0  0  0
  4  6  1  0  0  0  0
  4 10  1  0  0  0  0
  4 17  1  0  0  0  0
  4 18  1  0  0  0  0
  5  6  1  1  0  0  0
  5 12  1  0  0  0  0
  5 19  1  0  0  0  0
  6 14  1  0  0  0  0
  6 20  1  6  0  0  0
  8 15  2  0  0  0  0
  9 15  2  0  0  0  0
 11 21  1  0  0  0  0
 12 22  1  0  0  0  0
 13 15  1  0  0  0  0
 13 23  1  0  0  0  0
 14 15  1  0  0  0  0
M  END
$$$$
DrugBank_3611
 OpenBabel01151909533D

 81 83  0  0  1  0  0  0  0  0999 V2000
    6.2921   -4.2140   -5.8079 C   0  0  0  0  0  0  0  0  0  0  0  0
    7.7279  -10.1890   -5.6501 C   0  0  0  0  0  0  0  0  0  0  0  0
    5.2680   -3.5428   -5.1398 C   0  0  0  0  0  0  0  0  0  0  0  0
    6.4733  -10.7006   -5.3184 C   0  0  0  0  0  0  0  0  0  0  0  0
    5.3617   -6.3308   -5.1073 C   0  0  0  0  0  0  0  0  0  0  0  0
    8.5396  -10.7498   -3.4447 C   0  0  0  0  0  0  0  0  0  0  0  0
    4.3376   -5.6595   -4.4392 C   0  0  0  0  0  0  0  0  0  0  0  0
    6.3389   -5.6080   -5.7917 C   0  0  0  0  0  0  0  0  0  0  0  0
    8.7610  -10.2137   -4.7132 C   0  0  0  0  0  0  0  0  0  0  0  0
    4.2908   -4.2655   -4.4555 C   0  0  0  0  0  0  0  0  0  0  0  0
    6.2518  -11.2367   -4.0499 C   0  0  0  0  0  0  0  0  0  0  0  0
    7.2850  -11.2614   -3.1130 C   0  0  0  0  0  0  0  0  0  0  0  0
    3.3274   -6.4327   -3.7309 C   0  0  0  0  0  0  0  0  0  0  0  0
   12.3273   -7.7533   -3.4354 C   0  0  0  0  0  0  0  0  0  0  0  0
    9.6229   -7.3234   -5.8458 C   0  0  0  0  0  0  0  0  0  0  0  0
    2.8806  -11.2186   -2.7910 C   0  0  0  0  0  0  0  0  0  0  0  0
    2.4842   -1.4345    0.8276 C   0  0  0  0  0  0  0  0  0  0  0  0
    2.2366   -2.8409    0.2909 C   0  0  0  0  0  0  0  0  0  0  0  0
    2.2133   -0.3731   -0.2340 C   0  0  0  0  0  0  0  0  0  0  0  0
    3.0356   -3.1065   -0.9830 C   0  0  0  0  0  0  0  0  0  0  0  0
    3.0121   -0.6346   -1.5089 C   0  0  0  0  0  0  0  0  0  0  0  0
    2.7588   -2.0456   -2.0568 C   0  0  0  0  0  0  0  0  0  0  0  0
   13.7431   -7.2949   -3.5530 C   0  0  0  0  0  0  0  0  0  0  0  0
    6.9274   -7.2597   -7.6131 C   0  0  0  0  0  0  0  0  0  0  0  0
   10.1179   -9.6594   -5.0731 C   0  0  0  0  0  0  0  0  0  0  0  0
    3.9222  -10.8278   -3.8024 C   0  0  0  0  0  0  0  0  0  0  0  0
    3.6085   -2.3020   -3.3001 C   0  0  0  0  0  0  0  0  0  0  0  0
    7.4348   -6.3253   -6.5047 C   0  0  2  0  0  0  0  0  0  0  0  0
   10.2550   -8.1681   -4.7453 C   0  0  1  0  0  0  0  0  0  0  0  0
    3.5682   -6.7406   -2.3959 N   0  0  0  0  0  0  0  0  0  0  0  0
    8.2872   -7.0675   -5.5912 N   0  0  0  0  0  0  0  0  0  0  0  0
   11.6326   -7.7598   -4.6324 N   0  0  0  0  0  0  0  0  0  0  0  0
    2.2930   -6.8203   -4.3001 O   0  0  0  0  0  0  0  0  0  0  0  0
   11.8876   -8.0816   -2.3397 O   0  0  0  0  0  0  0  0  0  0  0  0
   10.2358   -6.9640   -6.8488 O   0  0  0  0  0  0  0  0  0  0  0  0
    2.9407  -12.1784   -2.0371 O   0  0  0  0  0  0  0  0  0  0  0  0
    8.1837  -11.9286   -0.5454 O   0  0  0  0  0  0  0  0  0  0  0  0
    1.8429  -10.3451   -2.8256 O   0  0  0  0  0  0  0  0  0  0  0  0
    5.7275  -11.1575   -0.9210 O   0  0  0  0  0  0  0  0  0  0  0  0
    6.4303  -13.4218   -1.7559 O   0  0  0  0  0  0  0  0  0  0  0  0
    5.0231  -11.7325   -3.7363 O   0  0  0  0  0  0  0  0  0  0  0  0
    3.2912   -3.5862   -3.8034 O   0  0  0  0  0  0  0  0  0  0  0  0
    7.0257  -11.9365   -1.4991 P   0  0  0  0  0  0  0  0  0  0  0  0
    7.0505   -3.6433   -6.3369 H   0  0  0  0  0  0  0  0  0  0  0  0
    7.8909   -9.7733   -6.6409 H   0  0  0  0  0  0  0  0  0  0  0  0
    5.2375   -2.4567   -5.1558 H   0  0  0  0  0  0  0  0  0  0  0  0
    5.6736  -10.6786   -6.0539 H   0  0  0  0  0  0  0  0  0  0  0  0
    5.4017   -7.4177   -5.0956 H   0  0  0  0  0  0  0  0  0  0  0  0
    9.3422  -10.7704   -2.7120 H   0  0  0  0  0  0  0  0  0  0  0  0
    1.8455   -1.2550    1.6998 H   0  0  0  0  0  0  0  0  0  0  0  0
    3.5236   -1.3522    1.1684 H   0  0  0  0  0  0  0  0  0  0  0  0
    2.5051   -3.5789    1.0554 H   0  0  0  0  0  0  0  0  0  0  0  0
    1.1671   -2.9700    0.0842 H   0  0  0  0  0  0  0  0  0  0  0  0
    1.1424   -0.3586   -0.4712 H   0  0  0  0  0  0  0  0  0  0  0  0
    2.4656    0.6169    0.1628 H   0  0  0  0  0  0  0  0  0  0  0  0
    4.1059   -3.1216   -0.7400 H   0  0  0  0  0  0  0  0  0  0  0  0
    2.7838   -4.1023   -1.3669 H   0  0  0  0  0  0  0  0  0  0  0  0
    2.7436    0.1140   -2.2640 H   0  0  0  0  0  0  0  0  0  0  0  0
    4.0810   -0.5024   -1.2974 H   0  0  0  0  0  0  0  0  0  0  0  0
    1.7027   -2.1176   -2.3494 H   0  0  0  0  0  0  0  0  0  0  0  0
   13.8450   -6.2060   -3.4190 H   0  0  0  0  0  0  0  0  0  0  0  0
   14.3956   -7.7447   -2.7875 H   0  0  0  0  0  0  0  0  0  0  0  0
   14.2314   -7.5153   -4.5157 H   0  0  0  0  0  0  0  0  0  0  0  0
    6.2425   -8.0100   -7.2031 H   0  0  0  0  0  0  0  0  0  0  0  0
    6.3933   -6.7014   -8.3902 H   0  0  0  0  0  0  0  0  0  0  0  0
    7.7517   -7.7879   -8.1054 H   0  0  0  0  0  0  0  0  0  0  0  0
   10.9000  -10.2352   -4.5600 H   0  0  0  0  0  0  0  0  0  0  0  0
   10.2876   -9.8339   -6.1438 H   0  0  0  0  0  0  0  0  0  0  0  0
    4.2895   -9.8238   -3.5748 H   0  0  0  0  0  0  0  0  0  0  0  0
    3.4982  -10.8563   -4.8098 H   0  0  0  0  0  0  0  0  0  0  0  0
    4.6657   -2.2669   -3.0395 H   0  0  0  0  0  0  0  0  0  0  0  0
    3.3899   -1.5519   -4.0592 H   0  0  0  0  0  0  0  0  0  0  0  0
    8.1146   -5.6008   -6.9870 H   0  0  0  0  0  0  0  0  0  0  0  0
    9.7780   -7.9259   -3.7883 H   0  0  0  0  0  0  0  0  0  0  0  0
    2.8811   -7.2781   -1.8786 H   0  0  0  0  0  0  0  0  0  0  0  0
    4.4170   -6.4387   -1.9285 H   0  0  0  0  0  0  0  0  0  0  0  0
    7.8853   -7.4131   -4.7290 H   0  0  0  0  0  0  0  0  0  0  0  0
   12.1187   -7.4613   -5.4749 H   0  0  0  0  0  0  0  0  0  0  0  0
    1.9783   -9.6422   -3.4965 H   0  0  0  0  0  0  0  0  0  0  0  0
    5.3228  -11.4794   -0.0875 H   0  0  0  0  0  0  0  0  0  0  0  0
    6.0815  -13.9237   -0.9888 H   0  0  0  0  0  0  0  0  0  0  0  0
  1  3  2  0  0  0  0
  1  8  1  0  0  0  0
  1 44  1  0  0  0  0
  2  4  2  0  0  0  0
  2  9  1  0  0  0  0
  2 45  1  0  0  0  0
  3 10  1  0  0  0  0
  3 46  1  0  0  0  0
  4 11  1  0  0  0  0
  4 47  1  0  0  0  0
  5  7  1  0  0  0  0
  5  8  2  0  0  0  0
  5 48  1  0  0  0  0
  6  9  2  0  0  0  0
  6 12  1  0  0  0  0
  6 49  1  0  0  0  0
  7 10  2  0  0  0  0
  7 13  1  0  0  0  0
  8 28  1  0  0  0  0
  9 25  1  0  0  0  0
 10 42  1  0  0  0  0
 11 12  2  0  0  0  0
 11 41  1  0  0  0  0
 12 43  1  0  0  0  0
 13 30  1  0  0  0  0
 13 33  2  0  0  0  0
 14 23  1  0  0  0  0
 14 32  1  0  0  0  0
 14 34  2  0  0  0  0
 15 29  1  0  0  0  0
 15 31  1  0  0  0  0
 15 35  2  0  0  0  0
 16 26  1  0  0  0  0
 16 36  2  0  0  0  0
 16 38  1  0  0  0  0
 17 18  1  0  0  0  0
 17 19  1  0  0  0  0
 17 50  1  0  0  0  0
 17 51  1  0  0  0  0
 18 20  1  0  0  0  0
 18 52  1  0  0  0  0
 18 53  1  0  0  0  0
 19 21  1  0  0  0  0
 19 54  1  0  0  0  0
 19 55  1  0  0  0  0
 20 22  1  0  0  0  0
 20 56  1  0  0  0  0
 20 57  1  0  0  0  0
 21 22  1  0  0  0  0
 21 58  1  0  0  0  0
 21 59  1  0  0  0  0
 22 27  1  0  0  0  0
 22 60  1  0  0  0  0
 23 61  1  0  0  0  0
 23 62  1  0  0  0  0
 23 63  1  0  0  0  0
 24 28  1  0  0  0  0
 24 64  1  0  0  0  0
 24 65  1  0  0  0  0
 24 66  1  0  0  0  0
 25 29  1  0  0  0  0
 25 67  1  0  0  0  0
 25 68  1  0  0  0  0
 26 41  1  0  0  0  0
 26 69  1  0  0  0  0
 26 70  1  0  0  0  0
 27 42  1  0  0  0  0
 27 71  1  0  0  0  0
 27 72  1  0  0  0  0
 28 31  1  0  0  0  0
 28 73  1  6  0  0  0
 29 32  1  0  0  0  0
 29 74  1  1  0  0  0
 30 75  1  0  0  0  0
 30 76  1  0  0  0  0
 31 77  1  0  0  0  0
 32 78  1  0  0  0  0
 37 43  2  0  0  0  0
 38 79  1  0  0  0  0
 39 43  1  0  0  0  0
 39 80  1  0  0  0  0
 40 43  1  0  0  0  0
 40 81  1  0  0  0  0
M  END
$$$$
DrugBank_914
 OpenBabel01151909533D

 33 33  0  0  1  0  0  0  0  0999 V2000
   -2.9006    0.2997    1.5925 C   0  0  0  0  0  0  0  0  0  0  0  0
   -1.8159    1.0469    1.8454 C   0  0  0  0  0  0  0  0  0  0  0  0
    0.6329    0.8068    1.5254 C   0  0  0  0  0  0  0  0  0  0  0  0
    1.4543   -0.1272    1.0231 C   0  0  0  0  0  0  0  0  0  0  0  0
    1.3550   -0.1883   -2.0357 C   0  0  0  0  0  0  0  0  0  0  0  0
   -1.3846   -1.4673   -1.7430 C   0  0  0  0  0  0  0  0  0  0  0  0
    0.8807   -1.2433   -2.9783 C   0  0  2  0  0  0  0  0  0  0  0  0
   -0.4683   -1.8567   -2.8146 C   0  0  1  0  0  0  0  0  0  0  0  0
   -4.1735    0.8445    1.0345 C   0  0  0  0  0  0  0  0  0  0  0  0
   -0.5384    0.4981    2.4111 C   0  0  0  0  0  0  0  0  0  0  0  0
    2.6287    0.1815    0.1378 C   0  0  0  0  0  0  0  0  0  0  0  0
    2.5600   -0.5631   -1.1956 C   0  0  0  0  0  0  0  0  0  0  0  0
   -2.2980   -0.5096   -2.1151 N   0  0  0  0  0  0  0  0  0  0  0  0
    0.7894    0.8968   -1.9998 O   0  0  0  0  0  0  0  0  0  0  0  0
   -1.3354   -1.9751   -0.6253 O   0  0  0  0  0  0  0  0  0  0  0  0
    0.7199   -2.5052   -2.3421 O   0  0  0  0  0  0  0  0  0  0  0  0
   -2.8765   -0.7678    1.7950 H   0  0  0  0  0  0  0  0  0  0  0  0
   -1.8471    2.1157    1.6455 H   0  0  0  0  0  0  0  0  0  0  0  0
    0.8123    1.8541    1.2929 H   0  0  0  0  0  0  0  0  0  0  0  0
    1.2823   -1.1740    1.2612 H   0  0  0  0  0  0  0  0  0  0  0  0
    1.3303   -1.2058   -3.9492 H   0  0  0  0  0  0  0  0  0  0  0  0
   -0.9290   -2.2605   -3.7078 H   0  0  0  0  0  0  0  0  0  0  0  0
   -4.8350    1.1536    1.8495 H   0  0  0  0  0  0  0  0  0  0  0  0
   -3.9630    1.7192    0.4116 H   0  0  0  0  0  0  0  0  0  0  0  0
   -4.7067    0.1100    0.4226 H   0  0  0  0  0  0  0  0  0  0  0  0
   -0.6218   -0.5821    2.5834 H   0  0  0  0  0  0  0  0  0  0  0  0
   -0.3652    0.9540    3.3931 H   0  0  0  0  0  0  0  0  0  0  0  0
    2.7174    1.2607   -0.0363 H   0  0  0  0  0  0  0  0  0  0  0  0
    3.5379   -0.1276    0.6676 H   0  0  0  0  0  0  0  0  0  0  0  0
    2.5479   -1.6460   -1.0247 H   0  0  0  0  0  0  0  0  0  0  0  0
    3.4519   -0.3229   -1.7859 H   0  0  0  0  0  0  0  0  0  0  0  0
   -2.9703   -0.1847   -1.4280 H   0  0  0  0  0  0  0  0  0  0  0  0
   -2.3269   -0.1145   -3.0495 H   0  0  0  0  0  0  0  0  0  0  0  0
  1  2  2  0  0  0  0
  1  9  1  0  0  0  0
  1 17  1  0  0  0  0
  2 10  1  0  0  0  0
  2 18  1  0  0  0  0
  3  4  2  0  0  0  0
  3 10  1  0  0  0  0
  3 19  1  0  0  0  0
  4 11  1  0  0  0  0
  4 20  1  0  0  0  0
  5  7  1  0  0  0  0
  5 12  1  0  0  0  0
  5 14  2  0  0  0  0
  6  8  1  0  0  0  0
  6 13  1  0  0  0  0
  6 15  2  0  0  0  0
  7  8  1  6  0  0  0
  7 16  1  0  0  0  0
  7 21  1  0  0  0  0
  8 16  1  0  0  0  0
  8 22  1  6  0  0  0
  9 23  1  0  0  0  0
  9 24  1  0  0  0  0
  9 25  1  0  0  0  0
 10 26  1  0  0  0  0
 10 27  1  0  0  0  0
 11 12  1  0  0  0  0
 11 28  1  0  0  0  0
 11 29  1  0  0  0  0
 12 30  1  0  0  0  0
 12 31  1  0  0  0  0
 13 32  1  0  0  0  0
 13 33  1  0  0  0  0
M  END
$$$$
DrugBank_3622
 OpenBabel01151909533D

 21 20  0  0  1  0  0  0  0  0999 V2000
   -2.2908   -1.6706    2.4687 C   0  0  0  0  0  0  0  0  0  0  0  0
   -0.5703   -0.8268   -0.2950 C   0  0  0  0  0  0  0  0  0  0  0  0
    0.0157   -1.1635    1.0762 C   0  0  0  0  0  0  0  0  0  0  0  0
    0.0973    0.3573   -0.9998 C   0  0  2  0  0  0  0  0  0  0  0  0
    1.5264    0.1750   -1.2104 N   0  0  0  0  0  0  0  0  0  0  0  0
   -1.3086    2.3269    0.2549 O   0  0  0  0  0  0  0  0  0  0  0  0
    0.6838    2.9176   -1.2494 O   0  0  0  0  0  0  0  0  0  0  0  0
    0.1018    1.9232   -0.0994 P   0  0  2  0  0  0  0  0  0  0  0  0
   -0.8665   -2.5708    1.8159 S   0  0  0  0  0  0  0  0  0  0  0  0
   -2.9699   -2.3634    2.9714 H   0  0  0  0  0  0  0  0  0  0  0  0
   -2.8244   -1.1780    1.6520 H   0  0  0  0  0  0  0  0  0  0  0  0
   -1.9564   -0.9154    3.1841 H   0  0  0  0  0  0  0  0  0  0  0  0
   -0.5071   -1.7057   -0.9502 H   0  0  0  0  0  0  0  0  0  0  0  0
   -1.6366   -0.5926   -0.1811 H   0  0  0  0  0  0  0  0  0  0  0  0
   -0.0753   -0.3157    1.7605 H   0  0  0  0  0  0  0  0  0  0  0  0
    1.0727   -1.4337    1.0021 H   0  0  0  0  0  0  0  0  0  0  0  0
   -0.3910    0.5168   -1.9672 H   0  0  0  0  0  0  0  0  0  0  0  0
    1.6951   -0.6046   -1.8443 H   0  0  0  0  0  0  0  0  0  0  0  0
    1.9107    0.9985   -1.6723 H   0  0  0  0  0  0  0  0  0  0  0  0
    0.7425    3.8771   -1.0542 H   0  0  0  0  0  0  0  0  0  0  0  0
    1.1152    1.9822    0.8802 H   0  0  0  0  0  0  0  0  0  0  0  0
  1  9  1  0  0  0  0
  1 10  1  0  0  0  0
  1 11  1  0  0  0  0
  1 12  1  0  0  0  0
  2  3  1  0  0  0  0
  2  4  1  0  0  0  0
  2 13  1  0  0  0  0
  2 14  1  0  0  0  0
  3  9  1  0  0  0  0
  3 15  1  0  0  0  0
  3 16  1  0  0  0  0
  4  5  1  0  0  0  0
  4  8  1  0  0  0  0
  4 17  1  6  0  0  0
  5 18  1  0  0  0  0
  5 19  1  0  0  0  0
  6  8  2  0  0  0  0
  7  8  1  0  0  0  0
  7 20  1  0  0  0  0
  8 21  1  1  0  0  0
M  END
$$$$
DrugBank_3655
 OpenBabel01151909533D

 12 11  0  0  0  0  0  0  0  0999 V2000
    2.7347   -0.1134   -2.2680 C   0  0  0  0  0  0  0  0  0  0  0  0
   -0.6556    0.0213    1.2439 C   0  0  0  0  0  0  0  0  0  0  0  0
    0.6230    0.1883    0.4361 C   0  0  0  0  0  0  0  0  0  0  0  0
    0.5121   -0.4119   -0.9586 C   0  0  0  0  0  0  0  0  0  0  0  0
    1.7341   -0.2475   -1.6785 N   0  0  0  0  0  0  0  0  0  0  0  0
   -1.4929    0.5015    0.7278 H   0  0  0  0  0  0  0  0  0  0  0  0
   -0.9053   -1.0357    1.3796 H   0  0  0  0  0  0  0  0  0  0  0  0
   -0.5578    0.4815    2.2323 H   0  0  0  0  0  0  0  0  0  0  0  0
    1.4460   -0.2993    0.9710 H   0  0  0  0  0  0  0  0  0  0  0  0
    0.8663    1.2548    0.3651 H   0  0  0  0  0  0  0  0  0  0  0  0
    0.3004   -1.4836   -0.8876 H   0  0  0  0  0  0  0  0  0  0  0  0
   -0.2991    0.0557   -1.5255 H   0  0  0  0  0  0  0  0  0  0  0  0
  1  5  3  0  0  0  0
  2  3  1  0  0  0  0
  2  6  1  0  0  0  0
  2  7  1  0  0  0  0
  2  8  1  0  0  0  0
  3  4  1  0  0  0  0
  3  9  1  0  0  0  0
  3 10  1  0  0  0  0
  4  5  1  0  0  0  0
  4 11  1  0  0  0  0
  4 12  1  0  0  0  0
M  END
$$$$
DrugBank_6100
 OpenBabel01151909533D

 39 41  0  0  1  0  0  0  0  0999 V2000
   -0.5763    2.4829   -1.2981 C   0  0  0  0  0  0  0  0  0  0  0  0
   -0.7538    2.8143    0.0431 C   0  0  0  0  0  0  0  0  0  0  0  0
   -0.2019    1.1874   -1.6532 C   0  0  0  0  0  0  0  0  0  0  0  0
   -0.5528    1.8522    1.0328 C   0  0  0  0  0  0  0  0  0  0  0  0
   -0.0075    0.2112   -0.6672 C   0  0  0  0  0  0  0  0  0  0  0  0
   -0.1664    0.5500    0.6882 C   0  0  0  0  0  0  0  0  0  0  0  0
    2.2967   -5.0984   -0.7821 C   0  0  0  0  0  0  0  0  0  0  0  0
    1.1655   -5.8869   -0.7585 C   0  0  0  0  0  0  0  0  0  0  0  0
    0.8279   -3.5527   -0.2687 C   0  0  0  0  0  0  0  0  0  0  0  0
    3.6155   -5.5878   -1.0743 C   0  0  0  0  0  0  0  0  0  0  0  0
    0.4313   -1.1785   -1.0596 C   0  0  0  0  0  0  0  0  0  0  0  0
    0.0096   -0.4901    1.7670 C   0  0  0  0  0  0  0  0  0  0  0  0
    0.2243   -2.2020    0.0755 C   0  0  2  0  0  0  0  0  0  0  0  0
    0.1029   -7.6415   -2.2235 C   0  0  0  0  0  0  0  0  0  0  0  0
    0.4751   -8.1020    0.2269 C   0  0  0  0  0  0  0  0  0  0  0  0
    1.0047   -7.3345   -1.0060 C   0  0  0  0  0  0  0  0  0  0  0  0
    2.1050   -3.7595   -0.5019 N   0  0  0  0  0  0  0  0  0  0  0  0
    0.7655   -1.6747    1.3402 N   0  0  0  0  0  0  0  0  0  0  0  0
    3.9182   -6.7661   -1.3417 O   0  0  0  0  0  0  0  0  0  0  0  0
    4.5725   -4.6107   -1.0373 O   0  0  0  0  0  0  0  0  0  0  0  0
   -0.1991   -4.9239   -0.3690 S   0  0  0  0  0  0  0  0  0  0  0  0
   -0.7295    3.2334   -2.0682 H   0  0  0  0  0  0  0  0  0  0  0  0
   -1.0489    3.8226    0.3192 H   0  0  0  0  0  0  0  0  0  0  0  0
   -0.0622    0.9431   -2.7033 H   0  0  0  0  0  0  0  0  0  0  0  0
   -0.6997    2.1233    2.0753 H   0  0  0  0  0  0  0  0  0  0  0  0
   -0.1301   -1.5057   -1.9444 H   0  0  0  0  0  0  0  0  0  0  0  0
    1.4912   -1.1297   -1.3449 H   0  0  0  0  0  0  0  0  0  0  0  0
    0.5343   -0.0469    2.6214 H   0  0  0  0  0  0  0  0  0  0  0  0
   -0.9804   -0.8026    2.1209 H   0  0  0  0  0  0  0  0  0  0  0  0
   -0.8686   -2.3799    0.2087 H   0  0  0  0  0  0  0  0  0  0  0  0
   -0.9007   -7.2221   -2.0930 H   0  0  0  0  0  0  0  0  0  0  0  0
   -0.0063   -8.7186   -2.3906 H   0  0  0  0  0  0  0  0  0  0  0  0
    0.5323   -7.2032   -3.1313 H   0  0  0  0  0  0  0  0  0  0  0  0
   -0.4992   -7.7027    0.5302 H   0  0  0  0  0  0  0  0  0  0  0  0
    1.1530   -8.0181    1.0833 H   0  0  0  0  0  0  0  0  0  0  0  0
    0.3460   -9.1678    0.0089 H   0  0  0  0  0  0  0  0  0  0  0  0
    1.9859   -7.8003   -1.2424 H   0  0  0  0  0  0  0  0  0  0  0  0
    0.6918   -2.3918    2.0630 H   0  0  0  0  0  0  0  0  0  0  0  0
    4.2218   -3.7215   -0.8168 H   0  0  0  0  0  0  0  0  0  0  0  0
  1  2  2  0  0  0  0
  1  3  1  0  0  0  0
  1 22  1  0  0  0  0
  2  4  1  0  0  0  0
  2 23  1  0  0  0  0
  3  5  2  0  0  0  0
  3 24  1  0  0  0  0
  4  6  2  0  0  0  0
  4 25  1  0  0  0  0
  5  6  1  0  0  0  0
  5 11  1  0  0  0  0
  6 12  1  0  0  0  0
  7  8  2  0  0  0  0
  7 10  1  0  0  0  0
  7 17  1  0  0  0  0
  8 16  1  0  0  0  0
  8 21  1  0  0  0  0
  9 13  1  0  0  0  0
  9 17  2  0  0  0  0
  9 21  1  0  0  0  0
 10 19  2  0  0  0  0
 10 20  1  0  0  0  0
 11 13  1  0  0  0  0
 11 26  1  0  0  0  0
 11 27  1  0  0  0  0
 12 18  1  0  0  0  0
 12 28  1  0  0  0  0
 12 29  1  0  0  0  0
 13 18  1  0  0  0  0
 13 30  1  1  0  0  0
 14 16  1  0  0  0  0
 14 31  1  0  0  0  0
 14 32  1  0  0  0  0
 14 33  1  0  0  0  0
 15 16  1  0  0  0  0
 15 34  1  0  0  0  0
 15 35  1  0  0  0  0
 15 36  1  0  0  0  0
 16 37  1  0  0  0  0
 18 38  1  0  0  0  0
 20 39  1  0  0  0  0
M  END
$$$$
DrugBank_977
 OpenBabel01151909533D

 61 62  0  0  1  0  0  0  0  0999 V2000
    1.1149   -0.2429    6.3517 C   0  0  0  0  0  0  0  0  0  0  0  0
    1.3355   -2.5606    5.7065 C   0  0  0  0  0  0  0  0  0  0  0  0
    2.2670    0.0679    5.6295 C   0  0  0  0  0  0  0  0  0  0  0  0
    2.4875   -2.2499    4.9841 C   0  0  0  0  0  0  0  0  0  0  0  0
    0.6492   -1.5571    6.3903 C   0  0  0  0  0  0  0  0  0  0  0  0
   -1.7736   -1.3131    6.8621 C   0  0  0  0  0  0  0  0  0  0  0  0
    2.9533   -0.9356    4.9456 C   0  0  0  0  0  0  0  0  0  0  0  0
   -0.5463   -1.8795    7.1399 C   0  0  0  0  0  0  0  0  0  0  0  0
   -2.8168   -1.7245    7.6663 C   0  0  0  0  0  0  0  0  0  0  0  0
   -1.4373   -3.0991    8.8387 C   0  0  0  0  0  0  0  0  0  0  0  0
   -1.9662   -0.3528    5.8021 C   0  0  0  0  0  0  0  0  0  0  0  0
   -1.7509   -0.5352    4.4871 C   0  0  0  0  0  0  0  0  0  0  0  0
   -6.5137   -1.6636    2.6147 C   0  0  0  0  0  0  0  0  0  0  0  0
   -4.7020   -0.4113    8.7032 C   0  0  0  0  0  0  0  0  0  0  0  0
   -5.2067   -2.2823    7.0908 C   0  0  0  0  0  0  0  0  0  0  0  0
   -2.1550   -3.9353   11.0775 C   0  0  0  0  0  0  0  0  0  0  0  0
   -2.2482   -6.4703    9.1753 C   0  0  0  0  0  0  0  0  0  0  0  0
   -5.3593   -0.9306    1.9717 C   0  0  0  0  0  0  0  0  0  0  0  0
   -2.9933   -0.0390    2.3712 C   0  0  0  0  0  0  0  0  0  0  0  0
   -4.1972   -1.1848    7.4720 C   0  0  0  0  0  0  0  0  0  0  0  0
   -1.9688    0.4853    3.3931 C   0  0  2  0  0  0  0  0  0  0  0  0
   -4.3612   -0.3702    2.9874 C   0  0  1  0  0  0  0  0  0  0  0  0
   -0.3415   -2.7791    8.1244 N   0  0  0  0  0  0  0  0  0  0  0  0
   -2.6839   -2.6193    8.6673 N   0  0  0  0  0  0  0  0  0  0  0  0
   -1.2583   -4.0461    9.8906 N   0  0  0  0  0  0  0  0  0  0  0  0
   -6.6062   -1.8692    3.8183 O   0  0  0  0  0  0  0  0  0  0  0  0
   -0.0850   -6.2539   10.6059 O   0  0  0  0  0  0  0  0  0  0  0  0
   -0.0045   -5.5701    8.1869 O   0  0  0  0  0  0  0  0  0  0  0  0
   -7.4322   -2.0939    1.7147 O   0  0  0  0  0  0  0  0  0  0  0  0
   -0.7460    0.7990    2.7343 O   0  0  0  0  0  0  0  0  0  0  0  0
   -4.8962    0.8033    3.5944 O   0  0  0  0  0  0  0  0  0  0  0  0
    4.0597   -0.6372    4.2520 F   0  0  0  0  0  0  0  0  0  0  0  0
   -0.7067   -5.6240    9.4554 S   0  0  0  0  0  0  0  0  0  0  0  0
    0.5911    0.5505    6.8797 H   0  0  0  0  0  0  0  0  0  0  0  0
    0.9850   -3.5898    5.7268 H   0  0  0  0  0  0  0  0  0  0  0  0
    2.6300    1.0910    5.5994 H   0  0  0  0  0  0  0  0  0  0  0  0
    3.0224   -3.0307    4.4514 H   0  0  0  0  0  0  0  0  0  0  0  0
   -2.3364    0.6220    6.1152 H   0  0  0  0  0  0  0  0  0  0  0  0
   -1.3991   -1.4991    4.1268 H   0  0  0  0  0  0  0  0  0  0  0  0
   -4.7359   -1.0477    9.5942 H   0  0  0  0  0  0  0  0  0  0  0  0
   -5.7101   -0.0153    8.5393 H   0  0  0  0  0  0  0  0  0  0  0  0
   -4.0410    0.4347    8.9222 H   0  0  0  0  0  0  0  0  0  0  0  0
   -5.2621   -3.0427    7.8778 H   0  0  0  0  0  0  0  0  0  0  0  0
   -4.9182   -2.7834    6.1604 H   0  0  0  0  0  0  0  0  0  0  0  0
   -6.2134   -1.8739    6.9496 H   0  0  0  0  0  0  0  0  0  0  0  0
   -1.9142   -4.7154   11.8044 H   0  0  0  0  0  0  0  0  0  0  0  0
   -3.1994   -4.0474   10.7739 H   0  0  0  0  0  0  0  0  0  0  0  0
   -2.0315   -2.9594   11.5546 H   0  0  0  0  0  0  0  0  0  0  0  0
   -2.0286   -7.4997    8.8878 H   0  0  0  0  0  0  0  0  0  0  0  0
   -2.8269   -6.4466   10.0999 H   0  0  0  0  0  0  0  0  0  0  0  0
   -2.7831   -5.9556    8.3757 H   0  0  0  0  0  0  0  0  0  0  0  0
   -4.8557   -1.5854    1.2518 H   0  0  0  0  0  0  0  0  0  0  0  0
   -5.7997   -0.1150    1.3843 H   0  0  0  0  0  0  0  0  0  0  0  0
   -3.1398    0.7129    1.5847 H   0  0  0  0  0  0  0  0  0  0  0  0
   -2.5787   -0.9401    1.9017 H   0  0  0  0  0  0  0  0  0  0  0  0
   -4.1997   -0.4628    6.6348 H   0  0  0  0  0  0  0  0  0  0  0  0
   -2.3351    1.4033    3.8675 H   0  0  0  0  0  0  0  0  0  0  0  0
   -4.2356   -1.1166    3.7796 H   0  0  0  0  0  0  0  0  0  0  0  0
   -7.2452   -1.8661    0.7791 H   0  0  0  0  0  0  0  0  0  0  0  0
   -0.9591    1.4536    2.0508 H   0  0  0  0  0  0  0  0  0  0  0  0
   -5.7192    0.5367    4.0325 H   0  0  0  0  0  0  0  0  0  0  0  0
  1  3  2  0  0  0  0
  1  5  1  0  0  0  0
  1 34  1  0  0  0  0
  2  4  1  0  0  0  0
  2  5  2  0  0  0  0
  2 35  1  0  0  0  0
  3  7  1  0  0  0  0
  3 36  1  0  0  0  0
  4  7  2  0  0  0  0
  4 37  1  0  0  0  0
  5  8  1  0  0  0  0
  6  8  2  0  0  0  0
  6  9  1  0  0  0  0
  6 11  1  0  0  0  0
  7 32  1  0  0  0  0
  8 23  1  0  0  0  0
  9 20  1  0  0  0  0
  9 24  2  0  0  0  0
 10 23  2  0  0  0  0
 10 24  1  0  0  0  0
 10 25  1  0  0  0  0
 11 12  2  0  0  0  0
 11 38  1  0  0  0  0
 12 21  1  0  0  0  0
 12 39  1  0  0  0  0
 13 18  1  0  0  0  0
 13 26  2  0  0  0  0
 13 29  1  0  0  0  0
 14 20  1  0  0  0  0
 14 40  1  0  0  0  0
 14 41  1  0  0  0  0
 14 42  1  0  0  0  0
 15 20  1  0  0  0  0
 15 43  1  0  0  0  0
 15 44  1  0  0  0  0
 15 45  1  0  0  0  0
 16 25  1  0  0  0  0
 16 46  1  0  0  0  0
 16 47  1  0  0  0  0
 16 48  1  0  0  0  0
 17 33  1  0  0  0  0
 17 49  1  0  0  0  0
 17 50  1  0  0  0  0
 17 51  1  0  0  0  0
 18 22  1  0  0  0  0
 18 52  1  0  0  0  0
 18 53  1  0  0  0  0
 19 21  1  0  0  0  0
 19 22  1  0  0  0  0
 19 54  1  0  0  0  0
 19 55  1  0  0  0  0
 20 56  1  0  0  0  0
 21 30  1  0  0  0  0
 21 57  1  1  0  0  0
 22 31  1  0  0  0  0
 22 58  1  1  0  0  0
 25 33  1  0  0  0  0
 27 33  2  0  0  0  0
 28 33  2  0  0  0  0
 29 59  1  0  0  0  0
 30 60  1  0  0  0  0
 31 61  1  0  0  0  0
M  END
$$$$
DrugBank_6103
 OpenBabel01151909533D

 52 53  0  0  1  0  0  0  0  0999 V2000
   -7.9023   -1.1534   -1.2105 C   0  0  0  0  0  0  0  0  0  0  0  0
   -5.1029   -6.9965   -3.2501 C   0  0  0  0  0  0  0  0  0  0  0  0
   -4.0003   -7.7746   -3.6029 C   0  0  0  0  0  0  0  0  0  0  0  0
   -5.1546   -5.6522   -3.6188 C   0  0  0  0  0  0  0  0  0  0  0  0
   -2.9493   -7.2084   -4.3244 C   0  0  0  0  0  0  0  0  0  0  0  0
   -4.1036   -5.0860   -4.3403 C   0  0  0  0  0  0  0  0  0  0  0  0
   -3.0010   -5.8641   -4.6931 C   0  0  0  0  0  0  0  0  0  0  0  0
   -4.8666   -0.0516   -1.6565 C   0  0  0  0  0  0  0  0  0  0  0  0
   -1.4897    0.5579   -2.7914 C   0  0  0  0  0  0  0  0  0  0  0  0
   -0.0498   -0.5036   -1.0034 C   0  0  0  0  0  0  0  0  0  0  0  0
    0.9715    0.8891   -2.7620 C   0  0  0  0  0  0  0  0  0  0  0  0
    0.8610    0.1920    0.0000 C   0  0  0  0  0  0  0  0  0  0  0  0
    1.8351    1.5275   -1.6833 C   0  0  0  0  0  0  0  0  0  0  0  0
   -7.3177    0.1840   -1.2904 C   0  0  0  0  0  0  0  0  0  0  0  0
   -4.1760   -3.6411   -4.7273 C   0  0  0  0  0  0  0  0  0  0  0  0
   -3.9983   -1.0094   -3.8494 C   0  0  0  0  0  0  0  0  0  0  0  0
   -3.8081    0.0292   -2.7507 C   0  0  2  0  0  0  0  0  0  0  0  0
   -1.2425   -6.1948   -6.2601 C   0  0  0  0  0  0  0  0  0  0  0  0
   -8.3688   -2.2139   -1.1446 N   0  0  0  0  0  0  0  0  0  0  0  0
   -0.2538    0.3499   -2.1766 N   0  0  0  0  0  0  0  0  0  0  0  0
   -6.1457    0.1839   -2.1354 N   0  0  0  0  0  0  0  0  0  0  0  0
   -4.5811   -0.2833   -0.4836 O   0  0  0  0  0  0  0  0  0  0  0  0
   -1.6616    1.2740   -3.7761 O   0  0  0  0  0  0  0  0  0  0  0  0
   -2.5193   -2.9140   -2.8407 O   0  0  0  0  0  0  0  0  0  0  0  0
   -4.9966   -2.9084   -2.3562 O   0  0  0  0  0  0  0  0  0  0  0  0
    2.0818    0.5925   -0.6290 O   0  0  0  0  0  0  0  0  0  0  0  0
   -1.9657   -5.3264   -5.3970 O   0  0  0  0  0  0  0  0  0  0  0  0
   -2.5045   -0.1284   -2.1788 O   0  0  0  0  0  0  0  0  0  0  0  0
   -0.7728   -5.4469   -7.2919 F   0  0  0  0  0  0  0  0  0  0  0  0
   -0.1563   -6.6716   -5.6039 F   0  0  0  0  0  0  0  0  0  0  0  0
   -3.8876   -2.6737   -3.2641 S   0  0  0  0  0  0  0  0  0  0  0  0
   -5.9213   -7.4368   -2.6877 H   0  0  0  0  0  0  0  0  0  0  0  0
   -3.9601   -8.8209   -3.3148 H   0  0  0  0  0  0  0  0  0  0  0  0
   -6.0174   -5.0541   -3.3378 H   0  0  0  0  0  0  0  0  0  0  0  0
   -2.0930   -7.8196   -4.5963 H   0  0  0  0  0  0  0  0  0  0  0  0
    0.4233   -1.4226   -1.3692 H   0  0  0  0  0  0  0  0  0  0  0  0
   -0.9968   -0.7746   -0.5298 H   0  0  0  0  0  0  0  0  0  0  0  0
    0.7450    1.6113   -3.5520 H   0  0  0  0  0  0  0  0  0  0  0  0
    1.4984    0.0414   -3.2160 H   0  0  0  0  0  0  0  0  0  0  0  0
    0.3747    1.0724    0.4365 H   0  0  0  0  0  0  0  0  0  0  0  0
    1.1119   -0.4917    0.8168 H   0  0  0  0  0  0  0  0  0  0  0  0
    2.8013    1.8254   -2.1019 H   0  0  0  0  0  0  0  0  0  0  0  0
    1.3584    2.4232   -1.2672 H   0  0  0  0  0  0  0  0  0  0  0  0
   -8.0289    0.9006   -1.7112 H   0  0  0  0  0  0  0  0  0  0  0  0
   -7.0129    0.5404   -0.3023 H   0  0  0  0  0  0  0  0  0  0  0  0
   -5.1584   -3.3722   -5.1255 H   0  0  0  0  0  0  0  0  0  0  0  0
   -3.4147   -3.3762   -5.4664 H   0  0  0  0  0  0  0  0  0  0  0  0
   -3.2163   -0.9114   -4.6095 H   0  0  0  0  0  0  0  0  0  0  0  0
   -4.9745   -0.9164   -4.3342 H   0  0  0  0  0  0  0  0  0  0  0  0
   -3.8496    1.0300   -3.1969 H   0  0  0  0  0  0  0  0  0  0  0  0
   -1.8501   -7.0099   -6.6676 H   0  0  0  0  0  0  0  0  0  0  0  0
   -6.2648    0.3651   -3.1275 H   0  0  0  0  0  0  0  0  0  0  0  0
  1 14  1  0  0  0  0
  1 19  3  0  0  0  0
  2  3  2  0  0  0  0
  2  4  1  0  0  0  0
  2 32  1  0  0  0  0
  3  5  1  0  0  0  0
  3 33  1  0  0  0  0
  4  6  2  0  0  0  0
  4 34  1  0  0  0  0
  5  7  2  0  0  0  0
  5 35  1  0  0  0  0
  6  7  1  0  0  0  0
  6 15  1  0  0  0  0
  7 27  1  0  0  0  0
  8 17  1  0  0  0  0
  8 21  1  0  0  0  0
  8 22  2  0  0  0  0
  9 20  1  0  0  0  0
  9 23  2  0  0  0  0
  9 28  1  0  0  0  0
 10 12  1  0  0  0  0
 10 20  1  0  0  0  0
 10 36  1  0  0  0  0
 10 37  1  0  0  0  0
 11 13  1  0  0  0  0
 11 20  1  0  0  0  0
 11 38  1  0  0  0  0
 11 39  1  0  0  0  0
 12 26  1  0  0  0  0
 12 40  1  0  0  0  0
 12 41  1  0  0  0  0
 13 26  1  0  0  0  0
 13 42  1  0  0  0  0
 13 43  1  0  0  0  0
 14 21  1  0  0  0  0
 14 44  1  0  0  0  0
 14 45  1  0  0  0  0
 15 31  1  0  0  0  0
 15 46  1  0  0  0  0
 15 47  1  0  0  0  0
 16 17  1  0  0  0  0
 16 31  1  0  0  0  0
 16 48  1  0  0  0  0
 16 49  1  0  0  0  0
 17 28  1  0  0  0  0
 17 50  1  6  0  0  0
 18 27  1  0  0  0  0
 18 29  1  0  0  0  0
 18 30  1  0  0  0  0
 18 51  1  0  0  0  0
 21 52  1  0  0  0  0
 24 31  2  0  0  0  0
 25 31  2  0  0  0  0
M  END
$$$$
DrugBank_3674
 OpenBabel01151909533D

 26 28  0  0  0  0  0  0  0  0999 V2000
    1.7752    0.4983    1.1092 C   0  0  0  0  0  0  0  0  0  0  0  0
    0.4052    0.3032    0.9608 C   0  0  0  0  0  0  0  0  0  0  0  0
    2.2992    0.8969    2.3413 C   0  0  0  0  0  0  0  0  0  0  0  0
   -0.4463    0.5037    2.0444 C   0  0  0  0  0  0  0  0  0  0  0  0
    1.7039    1.8323    7.1187 C   0  0  0  0  0  0  0  0  0  0  0  0
    1.4609    1.1020    3.4496 C   0  0  0  0  0  0  0  0  0  0  0  0
    0.0724    0.8893    3.2882 C   0  0  0  0  0  0  0  0  0  0  0  0
    1.1680    1.4390    5.8990 C   0  0  0  0  0  0  0  0  0  0  0  0
    1.9734    1.5220    4.7628 C   0  0  0  0  0  0  0  0  0  0  0  0
    2.9984    2.3069    7.1347 C   0  0  0  0  0  0  0  0  0  0  0  0
   -0.8635    1.1618    4.4439 C   0  0  0  0  0  0  0  0  0  0  0  0
   -0.2165    0.8586    5.7993 C   0  0  0  0  0  0  0  0  0  0  0  0
    3.2404    1.9926    4.8292 N   0  0  0  0  0  0  0  0  0  0  0  0
    3.7587    2.3926    6.0260 N   0  0  0  0  0  0  0  0  0  0  0  0
    3.5395    2.7137    8.3763 N   0  0  0  0  0  0  0  0  0  0  0  0
    2.4396    0.3436    0.2637 H   0  0  0  0  0  0  0  0  0  0  0  0
    0.0001   -0.0005    0.0001 H   0  0  0  0  0  0  0  0  0  0  0  0
    3.3746    1.0395    2.4200 H   0  0  0  0  0  0  0  0  0  0  0  0
   -1.5159    0.3611    1.9136 H   0  0  0  0  0  0  0  0  0  0  0  0
    1.1172    1.7631    8.0296 H   0  0  0  0  0  0  0  0  0  0  0  0
   -1.1543    2.2194    4.3989 H   0  0  0  0  0  0  0  0  0  0  0  0
   -1.7779    0.5644    4.3477 H   0  0  0  0  0  0  0  0  0  0  0  0
   -0.1405   -0.2273    5.9408 H   0  0  0  0  0  0  0  0  0  0  0  0
   -0.8591    1.2516    6.5959 H   0  0  0  0  0  0  0  0  0  0  0  0
    2.9593    2.6906    9.1881 H   0  0  0  0  0  0  0  0  0  0  0  0
    4.4580    3.1038    8.3993 H   0  0  0  0  0  0  0  0  0  0  0  0
  1  2  2  0  0  0  0
  1  3  1  0  0  0  0
  1 16  1  0  0  0  0
  2  4  1  0  0  0  0
  2 17  1  0  0  0  0
  3  6  2  0  0  0  0
  3 18  1  0  0  0  0
  4  7  2  0  0  0  0
  4 19  1  0  0  0  0
  5  8  2  0  0  0  0
  5 10  1  0  0  0  0
  5 20  1  0  0  0  0
  6  7  1  0  0  0  0
  6  9  1  0  0  0  0
  7 11  1  0  0  0  0
  8  9  1  0  0  0  0
  8 12  1  0  0  0  0
  9 13  2  0  0  0  0
 10 14  2  0  0  0  0
 10 15  1  0  0  0  0
 11 12  1  0  0  0  0
 11 21  1  0  0  0  0
 11 22  1  0  0  0  0
 12 23  1  0  0  0  0
 12 24  1  0  0  0  0
 13 14  1  0  0  0  0
 15 25  1  0  0  0  0
 15 26  1  0  0  0  0
M  END
$$$$
DrugBank_997
 OpenBabel01151909533D

 21 22  0  0  0  0  0  0  0  0999 V2000
   -3.3043    0.5959    0.5635 C   0  0  0  0  0  0  0  0  0  0  0  0
   -1.9439    0.8512    0.3679 C   0  0  0  0  0  0  0  0  0  0  0  0
   -1.5251   -1.5128    0.1298 C   0  0  0  0  0  0  0  0  0  0  0  0
   -3.7951   -0.7151    0.5455 C   0  0  0  0  0  0  0  0  0  0  0  0
   -2.8860   -1.7492    0.3268 C   0  0  0  0  0  0  0  0  0  0  0  0
   -1.0561   -0.2023    0.1514 C   0  0  0  0  0  0  0  0  0  0  0  0
   -5.6891   -2.2376    0.7363 C   0  0  0  0  0  0  0  0  0  0  0  0
   -7.1813   -2.3174    0.9705 C   0  0  0  0  0  0  0  0  0  0  0  0
   -5.0703   -3.3636    0.5576 N   0  0  0  0  0  0  0  0  0  0  0  0
   -5.1554   -0.9688    0.7419 N   0  0  0  0  0  0  0  0  0  0  0  0
   -2.8240   -4.0694    1.4238 O   0  0  0  0  0  0  0  0  0  0  0  0
   -3.2216   -3.8863   -1.0556 O   0  0  0  0  0  0  0  0  0  0  0  0
   -3.4637   -3.4160    0.2963 S   0  0  0  0  0  0  0  0  0  0  0  0
    0.6175    0.1181   -0.0886 Cl  0  0  0  0  0  0  0  0  0  0  0  0
   -3.9786    1.4327    0.7309 H   0  0  0  0  0  0  0  0  0  0  0  0
   -1.5915    1.8796    0.3872 H   0  0  0  0  0  0  0  0  0  0  0  0
   -0.8414   -2.3408   -0.0382 H   0  0  0  0  0  0  0  0  0  0  0  0
   -7.3646   -2.4070    2.0346 H   0  0  0  0  0  0  0  0  0  0  0  0
   -7.5724   -3.1833    0.4490 H   0  0  0  0  0  0  0  0  0  0  0  0
   -7.6452   -1.4170    0.5850 H   0  0  0  0  0  0  0  0  0  0  0  0
   -5.7535   -0.1637    0.8949 H   0  0  0  0  0  0  0  0  0  0  0  0
  1  2  2  0  0  0  0
  1  4  1  0  0  0  0
  1 15  1  0  0  0  0
  2  6  1  0  0  0  0
  2 16  1  0  0  0  0
  3  5  1  0  0  0  0
  3  6  2  0  0  0  0
  3 17  1  0  0  0  0
  4  5  2  0  0  0  0
  4 10  1  0  0  0  0
  5 13  1  0  0  0  0
  6 14  1  0  0  0  0
  7  8  1  0  0  0  0
  7  9  2  0  0  0  0
  7 10  1  0  0  0  0
  8 18  1  0  0  0  0
  8 19  1  0  0  0  0
  8 20  1  0  0  0  0
  9 13  1  0  0  0  0
 10 21  1  0  0  0  0
 11 13  2  0  0  0  0
 12 13  2  0  0  0  0
M  END
$$$$
DrugBank_3693
 OpenBabel01151909533D

 34 36  0  0  1  0  0  0  0  0999 V2000
    4.9302   -3.5289   -1.7277 C   0  0  0  0  0  0  0  0  0  0  0  0
    3.6426   -3.2282   -2.2586 C   0  0  0  0  0  0  0  0  0  0  0  0
   -0.2147    2.5443    0.7431 C   0  0  0  0  0  0  0  0  0  0  0  0
    4.9270   -3.5631   -0.3506 C   0  0  0  0  0  0  0  0  0  0  0  0
    0.1800    1.2954    0.1733 C   0  0  0  0  0  0  0  0  0  0  0  0
    2.7042   -3.0441   -1.2669 C   0  0  0  0  0  0  0  0  0  0  0  0
   -0.7555    0.3243    0.4514 C   0  0  0  0  0  0  0  0  0  0  0  0
   -1.4182    2.4556    1.4138 C   0  0  0  0  0  0  0  0  0  0  0  0
    1.3288   -0.2296   -1.5274 C   0  0  0  0  0  0  0  0  0  0  0  0
    1.4315    1.0130   -0.6130 C   0  0  2  0  0  0  0  0  0  0  0  0
    1.2459   -2.7169   -1.4099 C   0  0  0  0  0  0  0  0  0  0  0  0
    0.8955   -1.4412   -0.7411 N   0  0  0  0  0  0  0  0  0  0  0  0
   -1.4330    5.0232    2.1293 N   0  0  0  0  0  0  0  0  0  0  0  0
   -1.6842   -1.4319   -1.1398 O   0  0  0  0  0  0  0  0  0  0  0  0
   -0.7842   -2.1606    1.1190 O   0  0  0  0  0  0  0  0  0  0  0  0
   -3.6366    3.8072    1.5717 O   0  0  0  0  0  0  0  0  0  0  0  0
   -2.4112    3.2264    3.6951 O   0  0  0  0  0  0  0  0  0  0  0  0
    2.5519    0.8262    0.2549 O   0  0  0  0  0  0  0  0  0  0  0  0
    3.3762   -3.2336    0.2967 S   0  0  0  0  0  0  0  0  0  0  0  0
   -2.0749    0.8716    1.3536 S   0  0  0  0  0  0  0  0  0  0  0  0
   -0.7018   -1.3503   -0.0780 S   0  0  0  0  0  0  0  0  0  0  0  0
   -2.3920    3.6218    2.2974 S   0  0  0  0  0  0  0  0  0  0  0  0
    5.8140   -3.7118   -2.3247 H   0  0  0  0  0  0  0  0  0  0  0  0
    3.4208   -3.1533   -3.3157 H   0  0  0  0  0  0  0  0  0  0  0  0
    0.3555    3.4615    0.6675 H   0  0  0  0  0  0  0  0  0  0  0  0
    5.7611   -3.7654    0.3064 H   0  0  0  0  0  0  0  0  0  0  0  0
    0.6132   -0.0618   -2.3413 H   0  0  0  0  0  0  0  0  0  0  0  0
    2.3090   -0.4320   -1.9748 H   0  0  0  0  0  0  0  0  0  0  0  0
    1.6577    1.8812   -1.2423 H   0  0  0  0  0  0  0  0  0  0  0  0
    0.9715   -2.6301   -2.4668 H   0  0  0  0  0  0  0  0  0  0  0  0
    0.6219   -3.5050   -0.9755 H   0  0  0  0  0  0  0  0  0  0  0  0
   -0.5506    5.0667    2.6536 H   0  0  0  0  0  0  0  0  0  0  0  0
   -1.3881    5.4661    1.2035 H   0  0  0  0  0  0  0  0  0  0  0  0
    2.3344    0.0718    0.8224 H   0  0  0  0  0  0  0  0  0  0  0  0
  1  2  1  0  0  0  0
  1  4  2  0  0  0  0
  1 23  1  0  0  0  0
  2  6  2  0  0  0  0
  2 24  1  0  0  0  0
  3  5  1  0  0  0  0
  3  8  2  0  0  0  0
  3 25  1  0  0  0  0
  4 19  1  0  0  0  0
  4 26  1  0  0  0  0
  5  7  2  0  0  0  0
  5 10  1  0  0  0  0
  6 11  1  0  0  0  0
  6 19  1  0  0  0  0
  7 20  1  0  0  0  0
  7 21  1  0  0  0  0
  8 20  1  0  0  0  0
  8 22  1  0  0  0  0
  9 10  1  0  0  0  0
  9 12  1  0  0  0  0
  9 27  1  0  0  0  0
  9 28  1  0  0  0  0
 10 18  1  0  0  0  0
 10 29  1  6  0  0  0
 11 12  1  0  0  0  0
 11 30  1  0  0  0  0
 11 31  1  0  0  0  0
 12 21  1  0  0  0  0
 13 22  1  0  0  0  0
 13 32  1  0  0  0  0
 13 33  1  0  0  0  0
 14 21  2  0  0  0  0
 15 21  2  0  0  0  0
 16 22  2  0  0  0  0
 17 22  2  0  0  0  0
 18 34  1  0  0  0  0
M  END
$$$$
DrugBank_3726
 OpenBabel01151909533D

 26 26  0  0  0  0  0  0  0  0999 V2000
   -1.3874   -2.0789    2.7384 C   0  0  0  0  0  0  0  0  0  0  0  0
    0.8877   -2.6746    3.2914 C   0  0  0  0  0  0  0  0  0  0  0  0
   -1.7847   -3.3990    2.9505 C   0  0  0  0  0  0  0  0  0  0  0  0
    0.4905   -3.9948    3.5035 C   0  0  0  0  0  0  0  0  0  0  0  0
   -0.0512   -1.7167    2.9088 C   0  0  0  0  0  0  0  0  0  0  0  0
   -0.8457   -4.3570    3.3331 C   0  0  0  0  0  0  0  0  0  0  0  0
    0.7860   -0.0676    1.2370 C   0  0  0  0  0  0  0  0  0  0  0  0
    0.3783   -0.2924    2.6775 C   0  0  0  0  0  0  0  0  0  0  0  0
    0.1864    1.2193   -0.7974 C   0  0  0  0  0  0  0  0  0  0  0  0
   -0.0015    0.8715    0.5922 N   0  0  0  0  0  0  0  0  0  0  0  0
    1.7080   -0.6957    0.7195 O   0  0  0  0  0  0  0  0  0  0  0  0
   -0.2007   -1.2668   -1.8222 O   0  0  0  0  0  0  0  0  0  0  0  0
   -0.8020    0.8220   -3.1929 O   0  0  0  0  0  0  0  0  0  0  0  0
   -0.8508    0.0916   -1.7395 P   0  0  2  0  0  0  0  0  0  0  0  0
   -1.4378   -6.3237    3.6464 I   0  0  0  0  0  0  0  0  0  0  0  0
   -2.1256   -1.3390    2.4403 H   0  0  0  0  0  0  0  0  0  0  0  0
    1.9312   -2.4019    3.4252 H   0  0  0  0  0  0  0  0  0  0  0  0
   -2.8307   -3.6598    2.8097 H   0  0  0  0  0  0  0  0  0  0  0  0
    1.2387   -4.7255    3.8002 H   0  0  0  0  0  0  0  0  0  0  0  0
    1.2345   -0.0384    3.3145 H   0  0  0  0  0  0  0  0  0  0  0  0
   -0.4270    0.3903    2.9740 H   0  0  0  0  0  0  0  0  0  0  0  0
    1.2382    1.0998   -1.0720 H   0  0  0  0  0  0  0  0  0  0  0  0
   -0.1191    2.2589   -0.9412 H   0  0  0  0  0  0  0  0  0  0  0  0
   -0.7693    1.3123    1.0895 H   0  0  0  0  0  0  0  0  0  0  0  0
   -1.2438    0.3860   -3.9525 H   0  0  0  0  0  0  0  0  0  0  0  0
   -2.2146    0.2079   -1.3969 H   0  0  0  0  0  0  0  0  0  0  0  0
  1  3  2  0  0  0  0
  1  5  1  0  0  0  0
  1 16  1  0  0  0  0
  2  4  1  0  0  0  0
  2  5  2  0  0  0  0
  2 17  1  0  0  0  0
  3  6  1  0  0  0  0
  3 18  1  0  0  0  0
  4  6  2  0  0  0  0
  4 19  1  0  0  0  0
  5  8  1  0  0  0  0
  6 15  1  0  0  0  0
  7  8  1  0  0  0  0
  7 10  1  0  0  0  0
  7 11  2  0  0  0  0
  8 20  1  0  0  0  0
  8 21  1  0  0  0  0
  9 10  1  0  0  0  0
  9 14  1  0  0  0  0
  9 22  1  0  0  0  0
  9 23  1  0  0  0  0
 10 24  1  0  0  0  0
 12 14  2  0  0  0  0
 13 14  1  0  0  0  0
 13 25  1  0  0  0  0
 14 26  1  1  0  0  0
M  END
$$$$
DrugBank_1046
 OpenBabel01151909533D

 35 35  0  0  0  0  0  0  0  0999 V2000
    4.2003   -9.9674    1.4899 C   0  0  0  0  0  0  0  0  0  0  0  0
    3.5598  -10.1790   -0.8300 C   0  0  0  0  0  0  0  0  0  0  0  0
    4.1975   -8.5783    1.3640 C   0  0  0  0  0  0  0  0  0  0  0  0
    3.5570   -8.7898   -0.9559 C   0  0  0  0  0  0  0  0  0  0  0  0
    3.8814  -10.7678    0.3929 C   0  0  0  0  0  0  0  0  0  0  0  0
    3.8759   -7.9895    0.1411 C   0  0  0  0  0  0  0  0  0  0  0  0
    3.8835  -12.2475    0.5259 C   0  0  0  0  0  0  0  0  0  0  0  0
    2.6049  -14.8684   -1.7177 C   0  0  0  0  0  0  0  0  0  0  0  0
    1.8209  -14.7531    0.6735 C   0  0  0  0  0  0  0  0  0  0  0  0
    1.9166   -3.8319    1.4068 C   0  0  0  0  0  0  0  0  0  0  0  0
    3.8720   -6.5039    0.0073 C   0  0  0  0  0  0  0  0  0  0  0  0
    2.9151  -14.3722   -0.3129 C   0  0  0  0  0  0  0  0  0  0  0  0
    3.0465  -12.8950   -0.3375 N   0  0  0  0  0  0  0  0  0  0  0  0
    2.7782   -4.4766    0.4247 N   0  0  0  0  0  0  0  0  0  0  0  0
    2.7153   -5.9019    0.6202 N   0  0  0  0  0  0  0  0  0  0  0  0
    4.5918  -12.7719    1.3814 O   0  0  0  0  0  0  0  0  0  0  0  0
    4.4523  -10.4163    2.4472 H   0  0  0  0  0  0  0  0  0  0  0  0
    3.3098  -10.7926   -1.6916 H   0  0  0  0  0  0  0  0  0  0  0  0
    4.4469   -7.9624    2.2240 H   0  0  0  0  0  0  0  0  0  0  0  0
    3.3046   -8.3394   -1.9124 H   0  0  0  0  0  0  0  0  0  0  0  0
    1.6528  -14.4615   -2.0736 H   0  0  0  0  0  0  0  0  0  0  0  0
    3.3875  -14.5763   -2.4270 H   0  0  0  0  0  0  0  0  0  0  0  0
    2.5349  -15.9615   -1.7370 H   0  0  0  0  0  0  0  0  0  0  0  0
    0.8546  -14.3441    0.3585 H   0  0  0  0  0  0  0  0  0  0  0  0
    2.0440  -14.3646    1.6726 H   0  0  0  0  0  0  0  0  0  0  0  0
    1.7094  -15.8407    0.7475 H   0  0  0  0  0  0  0  0  0  0  0  0
    2.2605   -4.0639    2.4181 H   0  0  0  0  0  0  0  0  0  0  0  0
    0.8874   -4.1839    1.2956 H   0  0  0  0  0  0  0  0  0  0  0  0
    1.9328   -2.7473    1.2697 H   0  0  0  0  0  0  0  0  0  0  0  0
    4.7619   -6.0618    0.4767 H   0  0  0  0  0  0  0  0  0  0  0  0
    3.8825   -6.1944   -1.0467 H   0  0  0  0  0  0  0  0  0  0  0  0
    3.8702  -14.7913    0.0220 H   0  0  0  0  0  0  0  0  0  0  0  0
    2.4394  -12.4263   -0.9763 H   0  0  0  0  0  0  0  0  0  0  0  0
    2.4469   -4.2524   -0.5135 H   0  0  0  0  0  0  0  0  0  0  0  0
    1.8585   -6.2556    0.1818 H   0  0  0  0  0  0  0  0  0  0  0  0
  1  3  2  0  0  0  0
  1  5  1  0  0  0  0
  1 17  1  0  0  0  0
  2  4  1  0  0  0  0
  2  5  2  0  0  0  0
  2 18  1  0  0  0  0
  3  6  1  0  0  0  0
  3 19  1  0  0  0  0
  4  6  2  0  0  0  0
  4 20  1  0  0  0  0
  5  7  1  0  0  0  0
  6 11  1  0  0  0  0
  7 13  1  0  0  0  0
  7 16  2  0  0  0  0
  8 12  1  0  0  0  0
  8 21  1  0  0  0  0
  8 22  1  0  0  0  0
  8 23  1  0  0  0  0
  9 12  1  0  0  0  0
  9 24  1  0  0  0  0
  9 25  1  0  0  0  0
  9 26  1  0  0  0  0
 10 14  1  0  0  0  0
 10 27  1  0  0  0  0
 10 28  1  0  0  0  0
 10 29  1  0  0  0  0
 11 15  1  0  0  0  0
 11 30  1  0  0  0  0
 11 31  1  0  0  0  0
 12 13  1  0  0  0  0
 12 32  1  0  0  0  0
 13 33  1  0  0  0  0
 14 15  1  0  0  0  0
 14 34  1  0  0  0  0
 15 35  1  0  0  0  0
M  END
$$$$
DrugBank_6145
 OpenBabel01151909533D

 24 25  0  0  0  0  0  0  0  0999 V2000
   -0.4966   -2.0341    0.4940 C   0  0  0  0  0  0  0  0  0  0  0  0
   -0.0479   -3.3542    0.5448 C   0  0  0  0  0  0  0  0  0  0  0  0
    3.4207   -2.9899   -0.7267 C   0  0  0  0  0  0  0  0  0  0  0  0
    0.3500   -1.0275    0.0392 C   0  0  0  0  0  0  0  0  0  0  0  0
    3.8693   -4.3100   -0.6758 C   0  0  0  0  0  0  0  0  0  0  0  0
    1.7243   -5.0072    0.1848 C   0  0  0  0  0  0  0  0  0  0  0  0
    1.2560   -3.6839    0.1403 C   0  0  0  0  0  0  0  0  0  0  0  0
    2.1168   -2.6602   -0.3222 C   0  0  0  0  0  0  0  0  0  0  0  0
    1.6484   -1.3369   -0.3665 C   0  0  0  0  0  0  0  0  0  0  0  0
    3.0228   -5.3167   -0.2210 C   0  0  0  0  0  0  0  0  0  0  0  0
    2.4681   -0.2748   -0.8206 N   0  0  0  0  0  0  0  0  0  0  0  0
    2.4230   -7.8422   -0.2159 O   0  0  0  0  0  0  0  0  0  0  0  0
    4.6540   -7.0897   -1.1381 O   0  0  0  0  0  0  0  0  0  0  0  0
    4.2399   -7.1427    1.3299 O   0  0  0  0  0  0  0  0  0  0  0  0
    3.5858   -6.9685   -0.1583 S   0  0  0  0  0  0  0  0  0  0  0  0
   -1.5074   -1.7926    0.8098 H   0  0  0  0  0  0  0  0  0  0  0  0
   -0.7275   -4.1249    0.9024 H   0  0  0  0  0  0  0  0  0  0  0  0
    4.1131   -2.2328   -1.0874 H   0  0  0  0  0  0  0  0  0  0  0  0
   -0.0134   -0.0034    0.0037 H   0  0  0  0  0  0  0  0  0  0  0  0
    4.8823   -4.5413   -0.9946 H   0  0  0  0  0  0  0  0  0  0  0  0
    1.0708   -5.8029    0.5383 H   0  0  0  0  0  0  0  0  0  0  0  0
    3.4138   -0.4686   -1.0700 H   0  0  0  0  0  0  0  0  0  0  0  0
    2.1110    0.6556   -0.7911 H   0  0  0  0  0  0  0  0  0  0  0  0
    3.6024   -7.0783    2.0796 H   0  0  0  0  0  0  0  0  0  0  0  0
  1  2  2  0  0  0  0
  1  4  1  0  0  0  0
  1 16  1  0  0  0  0
  2  7  1  0  0  0  0
  2 17  1  0  0  0  0
  3  5  2  0  0  0  0
  3  8  1  0  0  0  0
  3 18  1  0  0  0  0
  4  9  2  0  0  0  0
  4 19  1  0  0  0  0
  5 10  1  0  0  0  0
  5 20  1  0  0  0  0
  6  7  1  0  0  0  0
  6 10  2  0  0  0  0
  6 21  1  0  0  0  0
  7  8  2  0  0  0  0
  8  9  1  0  0  0  0
  9 11  1  0  0  0  0
 10 15  1  0  0  0  0
 11 22  1  0  0  0  0
 11 23  1  0  0  0  0
 12 15  2  0  0  0  0
 13 15  2  0  0  0  0
 14 15  1  0  0  0  0
 14 24  1  0  0  0  0
M  END
$$$$
DrugBank_3739
 OpenBabel01151909533D

 43 43  0  0  0  0  0  0  0  0999 V2000
    1.8851   -1.0363   -0.1124 C   0  0  0  0  0  0  0  0  0  0  0  0
    1.7997   -1.0786    2.6757 C   0  0  0  0  0  0  0  0  0  0  0  0
    0.8066   -0.4630    0.5610 C   0  0  0  0  0  0  0  0  0  0  0  0
    2.9210   -1.6309    0.6081 C   0  0  0  0  0  0  0  0  0  0  0  0
    0.7638   -0.4841    1.9551 C   0  0  0  0  0  0  0  0  0  0  0  0
    2.8783   -1.6520    2.0022 C   0  0  0  0  0  0  0  0  0  0  0  0
   -2.4057    0.7177   -4.3116 C   0  0  0  0  0  0  0  0  0  0  0  0
   -0.2609    0.1484   -0.2205 C   0  0  0  0  0  0  0  0  0  0  0  0
   -1.4216    0.2455   -3.2792 C   0  0  0  0  0  0  0  0  0  0  0  0
   -2.0103   -0.2187   -1.9746 C   0  0  0  0  0  0  0  0  0  0  0  0
    5.1685   -1.4102   -0.4215 C   0  0  0  0  0  0  0  0  0  0  0  0
    3.9673   -3.6016   -0.4790 C   0  0  0  0  0  0  0  0  0  0  0  0
    4.9820   -0.6044   -1.6914 C   0  0  0  0  0  0  0  0  0  0  0  0
    3.2738   -3.8183   -1.8090 C   0  0  0  0  0  0  0  0  0  0  0  0
   -0.9450   -0.6812   -1.1144 N   0  0  0  0  0  0  0  0  0  0  0  0
    4.0043   -2.2062   -0.0933 N   0  0  0  0  0  0  0  0  0  0  0  0
   -0.3199    0.0906    2.6558 N   0  0  0  0  0  0  0  0  0  0  0  0
    3.9170   -2.2488    2.7516 N   0  0  0  0  0  0  0  0  0  0  0  0
   -2.0070    1.1732   -5.3691 O   0  0  0  0  0  0  0  0  0  0  0  0
   -0.5179    1.3573   -0.0953 O   0  0  0  0  0  0  0  0  0  0  0  0
   -0.2307    0.3347   -3.5372 O   0  0  0  0  0  0  0  0  0  0  0  0
   -0.1093    0.5498    3.7592 O   0  0  0  0  0  0  0  0  0  0  0  0
    3.8283   -2.2385    3.9617 O   0  0  0  0  0  0  0  0  0  0  0  0
   -1.6294    0.0059    2.2202 O   0  0  0  0  0  0  0  0  0  0  0  0
    5.0979   -2.6905    2.1843 O   0  0  0  0  0  0  0  0  0  0  0  0
    6.5697    0.4608   -2.0708 Br  0  0  0  0  0  0  0  0  0  0  0  0
    3.2727   -5.7084   -2.2854 Br  0  0  0  0  0  0  0  0  0  0  0  0
    1.9181   -1.0216   -1.2001 H   0  0  0  0  0  0  0  0  0  0  0  0
    1.7664   -1.0950    3.7632 H   0  0  0  0  0  0  0  0  0  0  0  0
   -3.4664    0.6299   -4.0291 H   0  0  0  0  0  0  0  0  0  0  0  0
   -2.6894   -1.0589   -2.1386 H   0  0  0  0  0  0  0  0  0  0  0  0
   -2.5303    0.6082   -1.4856 H   0  0  0  0  0  0  0  0  0  0  0  0
    5.3849   -0.7689    0.4392 H   0  0  0  0  0  0  0  0  0  0  0  0
    6.0007   -2.1104   -0.5432 H   0  0  0  0  0  0  0  0  0  0  0  0
    4.9987   -3.9689   -0.4934 H   0  0  0  0  0  0  0  0  0  0  0  0
    3.4277   -4.1298    0.3131 H   0  0  0  0  0  0  0  0  0  0  0  0
    4.1429    0.0939   -1.6259 H   0  0  0  0  0  0  0  0  0  0  0  0
    4.8468   -1.2584   -2.5569 H   0  0  0  0  0  0  0  0  0  0  0  0
    3.7644   -3.2874   -2.6295 H   0  0  0  0  0  0  0  0  0  0  0  0
    2.2227   -3.5222   -1.7583 H   0  0  0  0  0  0  0  0  0  0  0  0
   -0.6514   -1.6467   -1.2217 H   0  0  0  0  0  0  0  0  0  0  0  0
   -2.1126    0.3718    2.9804 H   0  0  0  0  0  0  0  0  0  0  0  0
    5.6241   -2.9077    2.9724 H   0  0  0  0  0  0  0  0  0  0  0  0
  1  3  2  0  0  0  0
  1  4  1  0  0  0  0
  1 28  1  0  0  0  0
  2  5  2  0  0  0  0
  2  6  1  0  0  0  0
  2 29  1  0  0  0  0
  3  5  1  0  0  0  0
  3  8  1  0  0  0  0
  4  6  2  0  0  0  0
  4 16  1  0  0  0  0
  5 17  1  0  0  0  0
  6 18  1  0  0  0  0
  7  9  1  0  0  0  0
  7 19  2  0  0  0  0
  7 30  1  0  0  0  0
  8 15  1  0  0  0  0
  8 20  2  0  0  0  0
  9 10  1  0  0  0  0
  9 21  2  0  0  0  0
 10 15  1  0  0  0  0
 10 31  1  0  0  0  0
 10 32  1  0  0  0  0
 11 13  1  0  0  0  0
 11 16  1  0  0  0  0
 11 33  1  0  0  0  0
 11 34  1  0  0  0  0
 12 14  1  0  0  0  0
 12 16  1  0  0  0  0
 12 35  1  0  0  0  0
 12 36  1  0  0  0  0
 13 26  1  0  0  0  0
 13 37  1  0  0  0  0
 13 38  1  0  0  0  0
 14 27  1  0  0  0  0
 14 39  1  0  0  0  0
 14 40  1  0  0  0  0
 15 41  1  0  0  0  0
 17 22  2  0  0  0  0
 17 24  1  0  0  0  0
 18 23  2  0  0  0  0
 18 25  1  0  0  0  0
 24 42  1  0  0  0  0
 25 43  1  0  0  0  0
M  END
$$$$
DrugBank_6160
 OpenBabel01151909533D

 22 23  0  0  0  0  0  0  0  0999 V2000
   -0.4966   -2.0341    0.4940 C   0  0  0  0  0  0  0  0  0  0  0  0
    0.3500   -1.0275    0.0392 C   0  0  0  0  0  0  0  0  0  0  0  0
   -0.0479   -3.3542    0.5448 C   0  0  0  0  0  0  0  0  0  0  0  0
    1.6484   -1.3369   -0.3665 C   0  0  0  0  0  0  0  0  0  0  0  0
    1.7243   -5.0072    0.1848 C   0  0  0  0  0  0  0  0  0  0  0  0
    3.0228   -5.3167   -0.2210 C   0  0  0  0  0  0  0  0  0  0  0  0
    3.4207   -2.9899   -0.7267 C   0  0  0  0  0  0  0  0  0  0  0  0
    1.2560   -3.6839    0.1403 C   0  0  0  0  0  0  0  0  0  0  0  0
    2.1168   -2.6602   -0.3222 C   0  0  0  0  0  0  0  0  0  0  0  0
    3.8693   -4.3100   -0.6758 C   0  0  0  0  0  0  0  0  0  0  0  0
    6.3057   -3.4984   -1.0543 O   0  0  0  0  0  0  0  0  0  0  0  0
    5.8697   -5.9261   -0.4969 O   0  0  0  0  0  0  0  0  0  0  0  0
    5.3778   -5.0276   -2.7807 O   0  0  0  0  0  0  0  0  0  0  0  0
    5.4942   -4.6999   -1.1833 S   0  0  0  0  0  0  0  0  0  0  0  0
   -1.5070   -1.7922    0.8106 H   0  0  0  0  0  0  0  0  0  0  0  0
    0.0002    0.0001    0.0012 H   0  0  0  0  0  0  0  0  0  0  0  0
   -0.7267   -4.1249    0.9040 H   0  0  0  0  0  0  0  0  0  0  0  0
    2.2926   -0.5339   -0.7183 H   0  0  0  0  0  0  0  0  0  0  0  0
    1.0804   -5.8098    0.5378 H   0  0  0  0  0  0  0  0  0  0  0  0
    3.3625   -6.3482   -0.1781 H   0  0  0  0  0  0  0  0  0  0  0  0
    4.0917   -2.2105   -1.0834 H   0  0  0  0  0  0  0  0  0  0  0  0
    5.1264   -4.2624   -3.3497 H   0  0  0  0  0  0  0  0  0  0  0  0
  1  2  2  0  0  0  0
  1  3  1  0  0  0  0
  1 15  1  0  0  0  0
  2  4  1  0  0  0  0
  2 16  1  0  0  0  0
  3  8  2  0  0  0  0
  3 17  1  0  0  0  0
  4  9  2  0  0  0  0
  4 18  1  0  0  0  0
  5  6  2  0  0  0  0
  5  8  1  0  0  0  0
  5 19  1  0  0  0  0
  6 10  1  0  0  0  0
  6 20  1  0  0  0  0
  7  9  1  0  0  0  0
  7 10  2  0  0  0  0
  7 21  1  0  0  0  0
  8  9  1  0  0  0  0
 10 14  1  0  0  0  0
 11 14  2  0  0  0  0
 12 14  2  0  0  0  0
 13 14  1  0  0  0  0
 13 22  1  0  0  0  0
M  END
$$$$
DrugBank_3752
 OpenBabel01151909533D

 31 32  0  0  1  0  0  0  0  0999 V2000
    1.6554   -1.5094    0.2822 C   0  0  0  0  0  0  0  0  0  0  0  0
    0.0813    0.4099    0.1103 C   0  0  0  0  0  0  0  0  0  0  0  0
    1.3296   -0.2189    0.4959 C   0  0  0  0  0  0  0  0  0  0  0  0
   -0.9349   -0.0371   -0.6378 C   0  0  0  0  0  0  0  0  0  0  0  0
   -0.3435    1.7938    0.4374 C   0  0  0  0  0  0  0  0  0  0  0  0
    2.7908   -0.4886    3.3759 C   0  0  0  0  0  0  0  0  0  0  0  0
    0.8820   -2.6416   -0.3250 C   0  0  0  0  0  0  0  0  0  0  0  0
   -1.1334   -1.3858   -1.2444 C   0  0  0  0  0  0  0  0  0  0  0  0
   -0.6359   -2.5289   -0.3707 C   0  0  0  0  0  0  0  0  0  0  0  0
    2.3668    0.6640    1.1506 C   0  0  0  0  0  0  0  0  0  0  0  0
    2.1890    0.7134    2.6667 C   0  0  2  0  0  0  0  0  0  0  0  0
   -1.5608    2.0009   -0.1608 N   0  0  0  0  0  0  0  0  0  0  0  0
    2.8710    1.8897    3.2040 N   0  0  0  0  0  0  0  0  0  0  0  0
    0.2704    2.5988    1.1180 O   0  0  0  0  0  0  0  0  0  0  0  0
    3.9491   -0.5737    3.7622 O   0  0  0  0  0  0  0  0  0  0  0  0
   -1.9770    0.8543   -0.8556 O   0  0  0  0  0  0  0  0  0  0  0  0
    1.8835   -1.4873    3.5464 O   0  0  0  0  0  0  0  0  0  0  0  0
    2.6530   -1.8258    0.5913 H   0  0  0  0  0  0  0  0  0  0  0  0
    1.2709   -2.8208   -1.3350 H   0  0  0  0  0  0  0  0  0  0  0  0
    1.1204   -3.5429    0.2551 H   0  0  0  0  0  0  0  0  0  0  0  0
   -2.2084   -1.5408   -1.4047 H   0  0  0  0  0  0  0  0  0  0  0  0
   -0.6656   -1.4173   -2.2354 H   0  0  0  0  0  0  0  0  0  0  0  0
   -1.0324   -3.4687   -0.7759 H   0  0  0  0  0  0  0  0  0  0  0  0
   -1.0391   -2.4381    0.6463 H   0  0  0  0  0  0  0  0  0  0  0  0
    3.3528    0.2884    0.8711 H   0  0  0  0  0  0  0  0  0  0  0  0
    2.2567    1.6582    0.7132 H   0  0  0  0  0  0  0  0  0  0  0  0
    1.1214    0.7609    2.9143 H   0  0  0  0  0  0  0  0  0  0  0  0
   -2.1516    2.8223   -0.1517 H   0  0  0  0  0  0  0  0  0  0  0  0
    3.1536    1.8706    4.1590 H   0  0  0  0  0  0  0  0  0  0  0  0
    2.8463    2.7294    2.6685 H   0  0  0  0  0  0  0  0  0  0  0  0
    0.9889   -1.2952    3.1920 H   0  0  0  0  0  0  0  0  0  0  0  0
  1  3  2  0  0  0  0
  1  7  1  0  0  0  0
  1 18  1  0  0  0  0
  2  3  1  0  0  0  0
  2  4  2  0  0  0  0
  2  5  1  0  0  0  0
  3 10  1  0  0  0  0
  4  8  1  0  0  0  0
  4 16  1  0  0  0  0
  5 12  1  0  0  0  0
  5 14  2  0  0  0  0
  6 11  1  0  0  0  0
  6 15  2  0  0  0  0
  6 17  1  0  0  0  0
  7  9  1  0  0  0  0
  7 19  1  0  0  0  0
  7 20  1  0  0  0  0
  8  9  1  0  0  0  0
  8 21  1  0  0  0  0
  8 22  1  0  0  0  0
  9 23  1  0  0  0  0
  9 24  1  0  0  0  0
 10 11  1  0  0  0  0
 10 25  1  0  0  0  0
 10 26  1  0  0  0  0
 11 13  1  0  0  0  0
 11 27  1  1  0  0  0
 12 16  1  0  0  0  0
 12 28  1  0  0  0  0
 13 29  1  0  0  0  0
 13 30  1  0  0  0  0
 17 31  1  0  0  0  0
M  END
$$$$
DrugBank_6182
 OpenBabel01151909533D

 56 59  0  0  1  0  0  0  0  0999 V2000
    4.8968    3.0047    0.0342 C   0  0  0  0  0  0  0  0  0  0  0  0
    5.2286    4.3589   -0.0041 C   0  0  0  0  0  0  0  0  0  0  0  0
    7.1083    3.8579   -1.4368 C   0  0  0  0  0  0  0  0  0  0  0  0
    5.6709    2.0769   -0.6629 C   0  0  0  0  0  0  0  0  0  0  0  0
    6.3343    4.7855   -0.7396 C   0  0  0  0  0  0  0  0  0  0  0  0
    6.7766    2.5036   -1.3984 C   0  0  0  0  0  0  0  0  0  0  0  0
    3.8989    0.3362    1.2596 C   0  0  0  0  0  0  0  0  0  0  0  0
    0.7566    1.2324   -1.2026 C   0  0  0  0  0  0  0  0  0  0  0  0
    0.6141   -1.2724   -1.2386 C   0  0  0  0  0  0  0  0  0  0  0  0
   -1.4781    0.1039   -1.1145 C   0  0  0  0  0  0  0  0  0  0  0  0
   -0.5790    1.2834    0.9119 C   0  0  0  0  0  0  0  0  0  0  0  0
   -0.7305   -1.2308    0.8741 C   0  0  0  0  0  0  0  0  0  0  0  0
   -0.0593    0.0296   -1.7032 C   0  0  1  0  0  0  0  0  0  0  0  0
    0.8494    1.2095    0.3359 C   0  0  1  0  0  0  0  0  0  0  0  0
    0.6975   -1.3101    0.2998 C   0  0  2  0  0  0  0  0  0  0  0  0
    1.5002   -0.1022    0.8274 C   0  0  1  0  0  0  0  0  0  0  0  0
   -1.4137    0.0787    0.4257 C   0  0  2  0  0  0  0  0  0  0  0  0
    5.6332   -1.3279    0.4900 C   0  0  0  0  0  0  0  0  0  0  0  0
    6.3639    0.8417    1.5475 C   0  0  0  0  0  0  0  0  0  0  0  0
   -3.8406   -1.2771    0.4334 C   0  0  0  0  0  0  0  0  0  0  0  0
    5.3086    0.1514    0.6850 C   0  0  0  0  0  0  0  0  0  0  0  0
    2.8939   -0.1804    0.4570 N   0  0  0  0  0  0  0  0  0  0  0  0
    3.7015    0.8967    2.3376 O   0  0  0  0  0  0  0  0  0  0  0  0
   -3.7054    1.3314    0.5336 O   0  0  0  0  0  0  0  0  0  0  0  0
   -2.9519   -0.0060    2.5374 O   0  0  0  0  0  0  0  0  0  0  0  0
    5.3221    0.7550   -0.6074 O   0  0  0  0  0  0  0  0  0  0  0  0
    6.6528    6.0861   -0.7764 F   0  0  0  0  0  0  0  0  0  0  0  0
   -3.0554    0.1678    1.1024 S   0  0  0  0  0  0  0  0  0  0  0  0
    7.7514    1.3784   -2.2700 Cl  0  0  0  0  0  0  0  0  0  0  0  0
    4.0340    2.6795    0.6093 H   0  0  0  0  0  0  0  0  0  0  0  0
    4.6262    5.0815    0.5386 H   0  0  0  0  0  0  0  0  0  0  0  0
    7.9667    4.2065   -2.0052 H   0  0  0  0  0  0  0  0  0  0  0  0
    1.7604    1.2127   -1.6435 H   0  0  0  0  0  0  0  0  0  0  0  0
    0.2868    2.1668   -1.5339 H   0  0  0  0  0  0  0  0  0  0  0  0
    0.0428   -2.1364   -1.6006 H   0  0  0  0  0  0  0  0  0  0  0  0
    1.6159   -1.3532   -1.6771 H   0  0  0  0  0  0  0  0  0  0  0  0
   -1.9780    1.0178   -1.4609 H   0  0  0  0  0  0  0  0  0  0  0  0
   -2.0802   -0.7357   -1.4856 H   0  0  0  0  0  0  0  0  0  0  0  0
   -0.5376    1.3002    2.0088 H   0  0  0  0  0  0  0  0  0  0  0  0
   -1.0549    2.2248    0.6079 H   0  0  0  0  0  0  0  0  0  0  0  0
   -1.3143   -2.0990    0.5420 H   0  0  0  0  0  0  0  0  0  0  0  0
   -0.6944   -1.2854    1.9700 H   0  0  0  0  0  0  0  0  0  0  0  0
   -0.1126    0.0484   -2.7974 H   0  0  0  0  0  0  0  0  0  0  0  0
    1.4292    2.0746    0.6787 H   0  0  0  0  0  0  0  0  0  0  0  0
    1.1689   -2.2483    0.6159 H   0  0  0  0  0  0  0  0  0  0  0  0
    1.4978   -0.1177    1.9246 H   0  0  0  0  0  0  0  0  0  0  0  0
    6.6363   -1.4832    0.0801 H   0  0  0  0  0  0  0  0  0  0  0  0
    4.9091   -1.8001   -0.1838 H   0  0  0  0  0  0  0  0  0  0  0  0
    5.5722   -1.8666    1.4430 H   0  0  0  0  0  0  0  0  0  0  0  0
    7.3649    0.7000    1.1232 H   0  0  0  0  0  0  0  0  0  0  0  0
    6.3859    0.4110    2.5550 H   0  0  0  0  0  0  0  0  0  0  0  0
    6.1876    1.9181    1.6365 H   0  0  0  0  0  0  0  0  0  0  0  0
   -4.8686   -1.3103    0.7977 H   0  0  0  0  0  0  0  0  0  0  0  0
   -3.8229   -1.2058   -0.6552 H   0  0  0  0  0  0  0  0  0  0  0  0
   -3.2875   -2.1558    0.7684 H   0  0  0  0  0  0  0  0  0  0  0  0
    3.1248   -0.6150   -0.4304 H   0  0  0  0  0  0  0  0  0  0  0  0
  1  2  2  0  0  0  0
  1  4  1  0  0  0  0
  1 30  1  0  0  0  0
  2  5  1  0  0  0  0
  2 31  1  0  0  0  0
  3  5  2  0  0  0  0
  3  6  1  0  0  0  0
  3 32  1  0  0  0  0
  4  6  2  0  0  0  0
  4 26  1  0  0  0  0
  5 27  1  0  0  0  0
  6 29  1  0  0  0  0
  7 21  1  0  0  0  0
  7 22  1  0  0  0  0
  7 23  2  0  0  0  0
  8 13  1  0  0  0  0
  8 14  1  0  0  0  0
  8 33  1  0  0  0  0
  8 34  1  0  0  0  0
  9 13  1  0  0  0  0
  9 15  1  0  0  0  0
  9 35  1  0  0  0  0
  9 36  1  0  0  0  0
 10 13  1  0  0  0  0
 10 17  1  0  0  0  0
 10 37  1  0  0  0  0
 10 38  1  0  0  0  0
 11 14  1  0  0  0  0
 11 17  1  0  0  0  0
 11 39  1  0  0  0  0
 11 40  1  0  0  0  0
 12 15  1  0  0  0  0
 12 17  1  0  0  0  0
 12 41  1  0  0  0  0
 12 42  1  0  0  0  0
 13 43  1  6  0  0  0
 14 16  1  1  0  0  0
 14 44  1  0  0  0  0
 15 16  1  1  0  0  0
 15 45  1  0  0  0  0
 16 22  1  0  0  0  0
 16 46  1  1  0  0  0
 17 28  1  1  0  0  0
 18 21  1  0  0  0  0
 18 47  1  0  0  0  0
 18 48  1  0  0  0  0
 18 49  1  0  0  0  0
 19 21  1  0  0  0  0
 19 50  1  0  0  0  0
 19 51  1  0  0  0  0
 19 52  1  0  0  0  0
 20 28  1  0  0  0  0
 20 53  1  0  0  0  0
 20 54  1  0  0  0  0
 20 55  1  0  0  0  0
 21 26  1  0  0  0  0
 22 56  1  0  0  0  0
 24 28  2  0  0  0  0
 25 28  2  0  0  0  0
M  END
$$$$
DrugBank_3787
 OpenBabel01151909533D

 34 33  0  0  0  0  0  0  0  0999 V2000
   16.2443   -2.2091   -5.9849 C   0  0  0  0  0  0  0  0  0  0  0  0
    4.0219   -3.2205   -1.7521 C   0  0  0  0  0  0  0  0  0  0  0  0
   16.9499   -1.3076   -6.5970 C   0  0  0  0  0  0  0  0  0  0  0  0
    3.0412   -2.3879   -1.5779 C   0  0  0  0  0  0  0  0  0  0  0  0
   15.5375   -3.1134   -5.3703 C   0  0  0  0  0  0  0  0  0  0  0  0
    5.0047   -4.0563   -1.9271 C   0  0  0  0  0  0  0  0  0  0  0  0
   14.0999   -3.4169   -5.6601 C   0  0  0  0  0  0  0  0  0  0  0  0
    6.4443   -3.7529   -1.6476 C   0  0  0  0  0  0  0  0  0  0  0  0
   11.0089   -3.4483   -3.4990 C   0  0  0  0  0  0  0  0  0  0  0  0
    9.5394   -3.7743   -3.7871 C   0  0  0  0  0  0  0  0  0  0  0  0
   11.8914   -3.5866   -4.7356 C   0  0  0  0  0  0  0  0  0  0  0  0
    8.6693   -3.6510   -2.5423 C   0  0  0  0  0  0  0  0  0  0  0  0
   13.2647   -3.2602   -4.4681 N   0  0  0  0  0  0  0  0  0  0  0  0
    7.2718   -3.9383   -2.8323 N   0  0  0  0  0  0  0  0  0  0  0  0
   16.5121   -0.7039   -7.3831 H   0  0  0  0  0  0  0  0  0  0  0  0
   17.9887   -1.1466   -6.3328 H   0  0  0  0  0  0  0  0  0  0  0  0
    3.2262   -1.3875   -1.2048 H   0  0  0  0  0  0  0  0  0  0  0  0
    2.0219   -2.6814   -1.8008 H   0  0  0  0  0  0  0  0  0  0  0  0
   16.0205   -3.6973   -4.5911 H   0  0  0  0  0  0  0  0  0  0  0  0
    4.7704   -5.0500   -2.2999 H   0  0  0  0  0  0  0  0  0  0  0  0
   13.7145   -2.7763   -6.4616 H   0  0  0  0  0  0  0  0  0  0  0  0
   14.0269   -4.4526   -6.0096 H   0  0  0  0  0  0  0  0  0  0  0  0
    6.5675   -2.7300   -1.2740 H   0  0  0  0  0  0  0  0  0  0  0  0
    6.7959   -4.4297   -0.8612 H   0  0  0  0  0  0  0  0  0  0  0  0
   11.3864   -4.1017   -2.7031 H   0  0  0  0  0  0  0  0  0  0  0  0
   11.0820   -2.4171   -3.1327 H   0  0  0  0  0  0  0  0  0  0  0  0
    9.1584   -3.0888   -4.5533 H   0  0  0  0  0  0  0  0  0  0  0  0
    9.4546   -4.7915   -4.1870 H   0  0  0  0  0  0  0  0  0  0  0  0
   11.5473   -2.9038   -5.5188 H   0  0  0  0  0  0  0  0  0  0  0  0
   11.8603   -4.6053   -5.1344 H   0  0  0  0  0  0  0  0  0  0  0  0
    9.0042   -4.3347   -1.7558 H   0  0  0  0  0  0  0  0  0  0  0  0
    8.7222   -2.6308   -2.1488 H   0  0  0  0  0  0  0  0  0  0  0  0
   13.3430   -2.2889   -4.1456 H   0  0  0  0  0  0  0  0  0  0  0  0
    6.9459   -3.3136   -3.5697 H   0  0  0  0  0  0  0  0  0  0  0  0
  1  3  2  0  0  0  0
  1  5  2  0  0  0  0
  2  4  2  0  0  0  0
  2  6  2  0  0  0  0
  3 15  1  0  0  0  0
  3 16  1  0  0  0  0
  4 17  1  0  0  0  0
  4 18  1  0  0  0  0
  5  7  1  0  0  0  0
  5 19  1  0  0  0  0
  6  8  1  0  0  0  0
  6 20  1  0  0  0  0
  7 13  1  0  0  0  0
  7 21  1  0  0  0  0
  7 22  1  0  0  0  0
  8 14  1  0  0  0  0
  8 23  1  0  0  0  0
  8 24  1  0  0  0  0
  9 10  1  0  0  0  0
  9 11  1  0  0  0  0
  9 25  1  0  0  0  0
  9 26  1  0  0  0  0
 10 12  1  0  0  0  0
 10 27  1  0  0  0  0
 10 28  1  0  0  0  0
 11 13  1  0  0  0  0
 11 29  1  0  0  0  0
 11 30  1  0  0  0  0
 12 14  1  0  0  0  0
 12 31  1  0  0  0  0
 12 32  1  0  0  0  0
 13 33  1  0  0  0  0
 14 34  1  0  0  0  0
M  END
$$$$
DrugBank_1134
 OpenBabel01151909533D

 66 70  0  0  0  0  0  0  0  0999 V2000
   15.4167   -2.8575   -1.0939 C   0  0  0  0  0  0  0  0  0  0  0  0
    1.0259   -0.1228    0.3350 C   0  0  0  0  0  0  0  0  0  0  0  0
   14.1803   -3.2626   -0.5913 C   0  0  0  0  0  0  0  0  0  0  0  0
    1.5879    0.8085    1.2132 C   0  0  0  0  0  0  0  0  0  0  0  0
    7.7819   -2.9373    1.2785 C   0  0  0  0  0  0  0  0  0  0  0  0
    9.1596   -3.0596    1.0982 C   0  0  0  0  0  0  0  0  0  0  0  0
   15.4912   -1.7832   -1.9805 C   0  0  0  0  0  0  0  0  0  0  0  0
   -0.0331   -2.2968   -1.6109 C   0  0  0  0  0  0  0  0  0  0  0  0
    0.0344   -3.4694   -2.4007 C   0  0  0  0  0  0  0  0  0  0  0  0
    3.0913   -1.3524    0.3263 C   0  0  0  0  0  0  0  0  0  0  0  0
   13.0926   -1.5191   -1.8618 C   0  0  0  0  0  0  0  0  0  0  0  0
    7.9159   -0.5926    0.7114 C   0  0  0  0  0  0  0  0  0  0  0  0
    4.7000    1.3925    2.8954 C   0  0  0  0  0  0  0  0  0  0  0  0
    3.6493   -0.4117    1.2094 C   0  0  0  0  0  0  0  0  0  0  0  0
    1.7781   -1.2046   -0.1090 C   0  0  0  0  0  0  0  0  0  0  0  0
   13.0182   -2.5934   -0.9752 C   0  0  0  0  0  0  0  0  0  0  0  0
    2.8996    0.6850    1.6650 C   0  0  0  0  0  0  0  0  0  0  0  0
    7.1600   -1.7038    1.0851 C   0  0  0  0  0  0  0  0  0  0  0  0
    9.9155   -1.9484    0.7245 C   0  0  0  0  0  0  0  0  0  0  0  0
   14.3291   -1.1140   -2.3645 C   0  0  0  0  0  0  0  0  0  0  0  0
    9.2936   -0.7149    0.5311 C   0  0  0  0  0  0  0  0  0  0  0  0
    1.1996   -2.1662   -1.0148 C   0  0  0  0  0  0  0  0  0  0  0  0
    1.3036   -3.9716   -2.2311 C   0  0  0  0  0  0  0  0  0  0  0  0
    4.9553   -0.5013    1.6825 C   0  0  0  0  0  0  0  0  0  0  0  0
    6.6385   -6.5091   -7.1403 C   0  0  0  0  0  0  0  0  0  0  0  0
   11.6887   -3.0301   -0.4337 C   0  0  0  0  0  0  0  0  0  0  0  0
    1.9978   -5.1513   -2.7663 C   0  0  0  0  0  0  0  0  0  0  0  0
    3.6081   -6.0270   -4.3162 C   0  0  0  0  0  0  0  0  0  0  0  0
    4.6642   -5.7050   -5.3560 C   0  0  0  0  0  0  0  0  0  0  0  0
    3.4231    1.5906    2.5098 N   0  0  0  0  0  0  0  0  0  0  0  0
    5.5107    0.3871    2.5281 N   0  0  0  0  0  0  0  0  0  0  0  0
    5.7734   -1.5812    1.2667 N   0  0  0  0  0  0  0  0  0  0  0  0
    2.9522   -4.8268   -3.8076 N   0  0  0  0  0  0  0  0  0  0  0  0
    6.2699   -7.7031   -4.8444 O   0  0  0  0  0  0  0  0  0  0  0  0
    4.5278   -7.9713   -6.6512 O   0  0  0  0  0  0  0  0  0  0  0  0
    2.0203   -3.1830   -1.3878 O   0  0  0  0  0  0  0  0  0  0  0  0
   11.2599   -2.0971    0.5556 O   0  0  0  0  0  0  0  0  0  0  0  0
   14.4003   -0.0826   -3.2161 F   0  0  0  0  0  0  0  0  0  0  0  0
    5.4931   -7.1502   -5.9407 S   0  0  0  0  0  0  0  0  0  0  0  0
   10.2044    0.6754    0.0689 Cl  0  0  0  0  0  0  0  0  0  0  0  0
   16.3217   -3.3782   -0.7946 H   0  0  0  0  0  0  0  0  0  0  0  0
   -0.0025    0.0142    0.0088 H   0  0  0  0  0  0  0  0  0  0  0  0
   14.1320   -4.1009    0.0989 H   0  0  0  0  0  0  0  0  0  0  0  0
    0.9780    1.6463    1.5460 H   0  0  0  0  0  0  0  0  0  0  0  0
    7.2025   -3.8096    1.5698 H   0  0  0  0  0  0  0  0  0  0  0  0
    9.6375   -4.0236    1.2506 H   0  0  0  0  0  0  0  0  0  0  0  0
   16.4537   -1.4683   -2.3721 H   0  0  0  0  0  0  0  0  0  0  0  0
   -0.8782   -1.6331   -1.4938 H   0  0  0  0  0  0  0  0  0  0  0  0
   -0.7466   -3.8928   -3.0160 H   0  0  0  0  0  0  0  0  0  0  0  0
    3.6726   -2.2021   -0.0265 H   0  0  0  0  0  0  0  0  0  0  0  0
   12.1929   -0.9912   -2.1663 H   0  0  0  0  0  0  0  0  0  0  0  0
    7.4262    0.3674    0.5616 H   0  0  0  0  0  0  0  0  0  0  0  0
    5.1159    2.1256    3.5759 H   0  0  0  0  0  0  0  0  0  0  0  0
    7.2017   -7.3444   -7.5594 H   0  0  0  0  0  0  0  0  0  0  0  0
    6.0707   -6.0007   -7.9211 H   0  0  0  0  0  0  0  0  0  0  0  0
    7.3083   -5.8101   -6.6374 H   0  0  0  0  0  0  0  0  0  0  0  0
   10.9377   -3.0769   -1.2297 H   0  0  0  0  0  0  0  0  0  0  0  0
   11.7621   -4.0250    0.0185 H   0  0  0  0  0  0  0  0  0  0  0  0
    2.5606   -5.6957   -1.9837 H   0  0  0  0  0  0  0  0  0  0  0  0
    1.3010   -5.8922   -3.2030 H   0  0  0  0  0  0  0  0  0  0  0  0
    2.8306   -6.6814   -4.7224 H   0  0  0  0  0  0  0  0  0  0  0  0
    4.0659   -6.5272   -3.4573 H   0  0  0  0  0  0  0  0  0  0  0  0
    5.4378   -5.0615   -4.9265 H   0  0  0  0  0  0  0  0  0  0  0  0
    4.2350   -5.2061   -6.2302 H   0  0  0  0  0  0  0  0  0  0  0  0
    5.2500   -2.4245    1.0636 H   0  0  0  0  0  0  0  0  0  0  0  0
    3.6630   -4.1935   -3.4358 H   0  0  0  0  0  0  0  0  0  0  0  0
  1  3  2  0  0  0  0
  1  7  1  0  0  0  0
  1 41  1  0  0  0  0
  2  4  2  0  0  0  0
  2 15  1  0  0  0  0
  2 42  1  0  0  0  0
  3 16  1  0  0  0  0
  3 43  1  0  0  0  0
  4 17  1  0  0  0  0
  4 44  1  0  0  0  0
  5  6  2  0  0  0  0
  5 18  1  0  0  0  0
  5 45  1  0  0  0  0
  6 19  1  0  0  0  0
  6 46  1  0  0  0  0
  7 20  2  0  0  0  0
  7 47  1  0  0  0  0
  8  9  1  0  0  0  0
  8 22  2  0  0  0  0
  8 48  1  0  0  0  0
  9 23  2  0  0  0  0
  9 49  1  0  0  0  0
 10 14  1  0  0  0  0
 10 15  2  0  0  0  0
 10 50  1  0  0  0  0
 11 16  2  0  0  0  0
 11 20  1  0  0  0  0
 11 51  1  0  0  0  0
 12 18  2  0  0  0  0
 12 21  1  0  0  0  0
 12 52  1  0  0  0  0
 13 30  2  0  0  0  0
 13 31  1  0  0  0  0
 13 53  1  0  0  0  0
 14 17  2  0  0  0  0
 14 24  1  0  0  0  0
 15 22  1  0  0  0  0
 16 26  1  0  0  0  0
 17 30  1  0  0  0  0
 18 32  1  0  0  0  0
 19 21  2  0  0  0  0
 19 37  1  0  0  0  0
 20 38  1  0  0  0  0
 21 40  1  0  0  0  0
 22 36  1  0  0  0  0
 23 27  1  0  0  0  0
 23 36  1  0  0  0  0
 24 31  2  0  0  0  0
 24 32  1  0  0  0  0
 25 39  1  0  0  0  0
 25 54  1  0  0  0  0
 25 55  1  0  0  0  0
 25 56  1  0  0  0  0
 26 37  1  0  0  0  0
 26 57  1  0  0  0  0
 26 58  1  0  0  0  0
 27 33  1  0  0  0  0
 27 59  1  0  0  0  0
 27 60  1  0  0  0  0
 28 29  1  0  0  0  0
 28 33  1  0  0  0  0
 28 61  1  0  0  0  0
 28 62  1  0  0  0  0
 29 39  1  0  0  0  0
 29 63  1  0  0  0  0
 29 64  1  0  0  0  0
 32 65  1  0  0  0  0
 33 66  1  0  0  0  0
 34 39  2  0  0  0  0
 35 39  2  0  0  0  0
M  END
$$$$
DrugBank_3817
 OpenBabel01151909533D

 42 42  0  0  1  0  0  0  0  0999 V2000
   -1.5230    5.2250    9.8090 C   0  0  0  0  0  0  0  0  0  0  0  0
   -1.4732    6.4187   10.4389 C   0  0  0  0  0  0  0  0  0  0  0  0
   -2.0055    4.0317   10.5878 C   0  0  0  0  0  0  0  0  0  0  0  0
   -2.3114    5.5069   12.5462 C   0  0  0  0  0  0  0  0  0  0  0  0
   -1.1452    5.0065    8.4309 C   0  0  0  0  0  0  0  0  0  0  0  0
   -1.7432    5.6279    7.4132 C   0  0  0  0  0  0  0  0  0  0  0  0
   -1.3019    5.3530    6.0178 C   0  0  0  0  0  0  0  0  0  0  0  0
   -1.0169    7.7212    9.8340 C   0  0  0  0  0  0  0  0  0  0  0  0
   -1.7400   12.4374    1.3633 C   0  0  0  0  0  0  0  0  0  0  0  0
   -2.5935    4.8199    3.0852 C   0  0  0  0  0  0  0  0  0  0  0  0
   -2.1094    7.3039    2.9750 C   0  0  0  0  0  0  0  0  0  0  0  0
   -1.6304    9.8729    2.3340 C   0  0  0  0  0  0  0  0  0  0  0  0
   -1.7873    5.9812    3.6726 C   0  0  1  0  0  0  0  0  0  0  0  0
   -1.8554    6.5459   11.7589 N   0  0  0  0  0  0  0  0  0  0  0  0
   -2.3633    4.2776   11.9027 N   0  0  0  0  0  0  0  0  0  0  0  0
   -2.0296    6.0823    5.0930 N   0  0  0  0  0  0  0  0  0  0  0  0
   -2.0755    2.9123   10.0838 O   0  0  0  0  0  0  0  0  0  0  0  0
   -2.6445    5.6561   13.7224 O   0  0  0  0  0  0  0  0  0  0  0  0
   -0.4001    4.5648    5.7521 O   0  0  0  0  0  0  0  0  0  0  0  0
    0.3809    8.0900    2.4039 O   0  0  0  0  0  0  0  0  0  0  0  0
   -3.9883    5.0541    3.2327 O   0  0  0  0  0  0  0  0  0  0  0  0
   -0.6177   11.3769    2.3043 S   0  0  0  0  0  0  0  0  0  0  0  0
   -0.7855    8.5333    3.2296 S   0  0  2  0  0  0  0  0  0  0  0  0
   -0.3394    4.3000    8.2824 H   0  0  0  0  0  0  0  0  0  0  0  0
   -2.5515    6.3351    7.5718 H   0  0  0  0  0  0  0  0  0  0  0  0
   -1.8698    8.2266    9.3923 H   0  0  0  0  0  0  0  0  0  0  0  0
   -0.2713    7.5183    9.0714 H   0  0  0  0  0  0  0  0  0  0  0  0
   -0.5808    8.3413   10.6111 H   0  0  0  0  0  0  0  0  0  0  0  0
   -1.2948   13.4268    1.2330 H   0  0  0  0  0  0  0  0  0  0  0  0
   -2.6879   12.5406    1.8972 H   0  0  0  0  0  0  0  0  0  0  0  0
   -1.9290   11.9982    0.3807 H   0  0  0  0  0  0  0  0  0  0  0  0
   -2.3758    4.6933    2.0192 H   0  0  0  0  0  0  0  0  0  0  0  0
   -2.3485    3.8874    3.6048 H   0  0  0  0  0  0  0  0  0  0  0  0
   -2.2251    7.1767    1.8937 H   0  0  0  0  0  0  0  0  0  0  0  0
   -3.0276    7.7448    3.3765 H   0  0  0  0  0  0  0  0  0  0  0  0
   -2.5835   10.0778    2.8296 H   0  0  0  0  0  0  0  0  0  0  0  0
   -1.8104    9.5380    1.3086 H   0  0  0  0  0  0  0  0  0  0  0  0
   -0.7222    5.7433    3.5642 H   0  0  0  0  0  0  0  0  0  0  0  0
   -1.7973    7.4686   12.1811 H   0  0  0  0  0  0  0  0  0  0  0  0
   -2.6941    3.4857   12.4466 H   0  0  0  0  0  0  0  0  0  0  0  0
   -2.7821    6.6913    5.4009 H   0  0  0  0  0  0  0  0  0  0  0  0
   -4.1589    5.1349    4.1848 H   0  0  0  0  0  0  0  0  0  0  0  0
  1  2  2  0  0  0  0
  1  3  1  0  0  0  0
  1  5  1  0  0  0  0
  2  8  1  0  0  0  0
  2 14  1  0  0  0  0
  3 15  1  0  0  0  0
  3 17  2  0  0  0  0
  4 14  1  0  0  0  0
  4 15  1  0  0  0  0
  4 18  2  0  0  0  0
  5  6  2  0  0  0  0
  5 24  1  0  0  0  0
  6  7  1  0  0  0  0
  6 25  1  0  0  0  0
  7 16  1  0  0  0  0
  7 19  2  0  0  0  0
  8 26  1  0  0  0  0
  8 27  1  0  0  0  0
  8 28  1  0  0  0  0
  9 22  1  0  0  0  0
  9 29  1  0  0  0  0
  9 30  1  0  0  0  0
  9 31  1  0  0  0  0
 10 13  1  0  0  0  0
 10 21  1  0  0  0  0
 10 32  1  0  0  0  0
 10 33  1  0  0  0  0
 11 13  1  0  0  0  0
 11 23  1  0  0  0  0
 11 34  1  0  0  0  0
 11 35  1  0  0  0  0
 12 22  1  0  0  0  0
 12 23  1  0  0  0  0
 12 36  1  0  0  0  0
 12 37  1  0  0  0  0
 13 16  1  0  0  0  0
 13 38  1  6  0  0  0
 14 39  1  0  0  0  0
 15 40  1  0  0  0  0
 16 41  1  0  0  0  0
 21 42  1  0  0  0  0
 23 20  2  6  0  0  0
M  END
$$$$
DrugBank_1145
 OpenBabel01151909533D

 20 21  0  0  0  0  0  0  0  0999 V2000
    0.6206   -1.9592   -0.6407 C   0  0  0  0  0  0  0  0  0  0  0  0
    0.7448   -0.7843    0.0984 C   0  0  0  0  0  0  0  0  0  0  0  0
    1.5761   -2.9684   -0.5160 C   0  0  0  0  0  0  0  0  0  0  0  0
    1.8251   -0.6141    0.9652 C   0  0  0  0  0  0  0  0  0  0  0  0
    3.6512   -3.7752    0.5217 C   0  0  0  0  0  0  0  0  0  0  0  0
    2.6674   -2.8069    0.3540 C   0  0  0  0  0  0  0  0  0  0  0  0
    2.7925   -1.6242    1.0980 C   0  0  0  0  0  0  0  0  0  0  0  0
    3.8904   -1.5140    1.9442 C   0  0  0  0  0  0  0  0  0  0  0  0
    4.7029   -3.6267    1.3560 N   0  0  0  0  0  0  0  0  0  0  0  0
    4.8241   -2.4808    2.0769 N   0  0  0  0  0  0  0  0  0  0  0  0
    4.9235   -0.3081    3.7884 N   0  0  0  0  0  0  0  0  0  0  0  0
    4.0649   -0.3418    2.7179 N   0  0  0  0  0  0  0  0  0  0  0  0
   -0.2215   -2.0901   -1.3142 H   0  0  0  0  0  0  0  0  0  0  0  0
    0.0001    0.0004   -0.0002 H   0  0  0  0  0  0  0  0  0  0  0  0
    1.4642   -3.8790   -1.1000 H   0  0  0  0  0  0  0  0  0  0  0  0
    1.8894    0.3156    1.5250 H   0  0  0  0  0  0  0  0  0  0  0  0
    3.6281   -4.7163   -0.0181 H   0  0  0  0  0  0  0  0  0  0  0  0
    4.4572    0.1774    4.5533 H   0  0  0  0  0  0  0  0  0  0  0  0
    5.7282    0.2660    3.5402 H   0  0  0  0  0  0  0  0  0  0  0  0
    3.7117    0.5249    2.3441 H   0  0  0  0  0  0  0  0  0  0  0  0
  1  2  2  0  0  0  0
  1  3  1  0  0  0  0
  1 13  1  0  0  0  0
  2  4  1  0  0  0  0
  2 14  1  0  0  0  0
  3  6  2  0  0  0  0
  3 15  1  0  0  0  0
  4  7  2  0  0  0  0
  4 16  1  0  0  0  0
  5  6  1  0  0  0  0
  5  9  2  0  0  0  0
  5 17  1  0  0  0  0
  6  7  1  0  0  0  0
  7  8  1  0  0  0  0
  8 10  2  0  0  0  0
  8 12  1  0  0  0  0
  9 10  1  0  0  0  0
 11 12  1  0  0  0  0
 11 18  1  0  0  0  0
 11 19  1  0  0  0  0
 12 20  1  0  0  0  0
M  END
$$$$
DrugBank_6222
 OpenBabel01151909533D

 26 27  0  0  0  0  0  0  0  0999 V2000
    0.7234   -1.8449    0.9269 C   0  0  0  0  0  0  0  0  0  0  0  0
    4.9259   -2.8676    4.8676 C   0  0  0  0  0  0  0  0  0  0  0  0
    0.7671   -0.4906    0.5962 C   0  0  0  0  0  0  0  0  0  0  0  0
    6.0125   -3.4512    4.2164 C   0  0  0  0  0  0  0  0  0  0  0  0
    1.7790   -2.4257    1.6299 C   0  0  0  0  0  0  0  0  0  0  0  0
    3.9018   -2.2793    4.1254 C   0  0  0  0  0  0  0  0  0  0  0  0
    1.8664    0.2831    0.9684 C   0  0  0  0  0  0  0  0  0  0  0  0
    6.0752   -3.4464    2.8229 C   0  0  0  0  0  0  0  0  0  0  0  0
    2.8783   -1.6520    2.0022 C   0  0  0  0  0  0  0  0  0  0  0  0
    3.9645   -2.2745    2.7320 C   0  0  0  0  0  0  0  0  0  0  0  0
    2.9220   -0.2976    1.6715 C   0  0  0  0  0  0  0  0  0  0  0  0
    5.0512   -2.8580    2.0807 C   0  0  0  0  0  0  0  0  0  0  0  0
    5.9570   -4.1216   -0.0728 O   0  0  0  0  0  0  0  0  0  0  0  0
    3.9849    0.4820    2.0211 O   0  0  0  0  0  0  0  0  0  0  0  0
    6.2208   -1.6500    0.2565 O   0  0  0  0  0  0  0  0  0  0  0  0
    5.1881   -2.8837    0.2830 S   0  0  2  0  0  0  0  0  0  0  0  0
   -0.1328   -2.4471    0.6371 H   0  0  0  0  0  0  0  0  0  0  0  0
    4.8777   -2.8709    5.9524 H   0  0  0  0  0  0  0  0  0  0  0  0
   -0.0547   -0.0386    0.0487 H   0  0  0  0  0  0  0  0  0  0  0  0
    6.8100   -3.9089    4.7943 H   0  0  0  0  0  0  0  0  0  0  0  0
    1.7293   -3.4829    1.8797 H   0  0  0  0  0  0  0  0  0  0  0  0
    3.0625   -1.8286    4.6503 H   0  0  0  0  0  0  0  0  0  0  0  0
    1.8935    1.3376    0.7072 H   0  0  0  0  0  0  0  0  0  0  0  0
    6.9299   -3.9058    2.3328 H   0  0  0  0  0  0  0  0  0  0  0  0
    3.8485    1.3906    1.7115 H   0  0  0  0  0  0  0  0  0  0  0  0
    6.6189   -1.5541   -0.6404 H   0  0  0  0  0  0  0  0  0  0  0  0
  1  3  2  0  0  0  0
  1  5  1  0  0  0  0
  1 17  1  0  0  0  0
  2  4  2  0  0  0  0
  2  6  1  0  0  0  0
  2 18  1  0  0  0  0
  3  7  1  0  0  0  0
  3 19  1  0  0  0  0
  4  8  1  0  0  0  0
  4 20  1  0  0  0  0
  5  9  2  0  0  0  0
  5 21  1  0  0  0  0
  6 10  2  0  0  0  0
  6 22  1  0  0  0  0
  7 11  2  0  0  0  0
  7 23  1  0  0  0  0
  8 12  2  0  0  0  0
  8 24  1  0  0  0  0
  9 10  1  0  0  0  0
  9 11  1  0  0  0  0
 10 12  1  0  0  0  0
 11 14  1  0  0  0  0
 12 16  1  0  0  0  0
 14 25  1  0  0  0  0
 15 16  1  0  0  0  0
 15 26  1  0  0  0  0
 16 13  2  1  0  0  0
M  END
$$$$
DrugBank_1168
 OpenBabel01151909533D

 53 56  0  0  1  0  0  0  0  0999 V2000
    2.2353   -2.2055    1.8155 C   0  0  0  0  0  0  0  0  0  0  0  0
    1.5662   -2.6266    2.9646 C   0  0  0  0  0  0  0  0  0  0  0  0
    1.6842   -1.2051    1.0147 C   0  0  0  0  0  0  0  0  0  0  0  0
    0.3459   -2.0475    3.3129 C   0  0  0  0  0  0  0  0  0  0  0  0
    0.4640   -0.6260    1.3629 C   0  0  0  0  0  0  0  0  0  0  0  0
   -0.2052   -1.0472    2.5120 C   0  0  0  0  0  0  0  0  0  0  0  0
   -2.4763  -10.4075    5.6793 C   0  0  0  0  0  0  0  0  0  0  0  0
   -4.4646   -6.1383    4.1179 C   0  0  0  0  0  0  0  0  0  0  0  0
   -3.6377   -7.0697    3.5863 C   0  0  0  0  0  0  0  0  0  0  0  0
   -5.0092   -3.6651    3.9787 C   0  0  0  0  0  0  0  0  0  0  0  0
   -5.2888   -6.4323    5.2999 C   0  0  0  0  0  0  0  0  0  0  0  0
   -2.7008   -1.1685    2.2713 C   0  0  0  0  0  0  0  0  0  0  0  0
   -2.6458   -6.7688    2.4665 C   0  0  0  0  0  0  0  0  0  0  0  0
   -4.2952   -3.0223    2.7542 C   0  0  2  0  0  0  0  0  0  0  0  0
   -3.9705   -4.4787    2.3389 C   0  0  2  0  0  0  0  0  0  0  0  0
   -3.5708   -8.5115    4.0300 C   0  0  0  0  0  0  0  0  0  0  0  0
   -0.7531  -10.5333    7.5358 C   0  0  0  0  0  0  0  0  0  0  0  0
   -1.5269   -0.4197    2.8884 C   0  0  2  0  0  0  0  0  0  0  0  0
   -3.2518  -11.2851    5.0852 N   0  0  0  0  0  0  0  0  0  0  0  0
   -2.9778  -12.4915    5.6889 N   0  0  0  0  0  0  0  0  0  0  0  0
   -2.0534  -12.3541    6.6317 N   0  0  0  0  0  0  0  0  0  0  0  0
   -1.7417  -11.0506    6.6238 N   0  0  0  0  0  0  0  0  0  0  0  0
   -4.5299   -4.8763    3.6195 N   0  0  0  0  0  0  0  0  0  0  0  0
   -3.1854   -2.1492    3.1133 N   0  0  0  0  0  0  0  0  0  0  0  0
   -5.6601   -3.2621    4.9145 O   0  0  0  0  0  0  0  0  0  0  0  0
   -4.8426   -6.7588    6.3812 O   0  0  0  0  0  0  0  0  0  0  0  0
   -3.1278   -0.9129    1.1474 O   0  0  0  0  0  0  0  0  0  0  0  0
    1.0798  -10.5193    5.6298 O   0  0  0  0  0  0  0  0  0  0  0  0
    1.0479  -12.4484    7.2720 O   0  0  0  0  0  0  0  0  0  0  0  0
   -6.5905   -6.2817    4.9857 O   0  0  0  0  0  0  0  0  0  0  0  0
   -1.5403    0.9268    2.4379 O   0  0  0  0  0  0  0  0  0  0  0  0
    1.7283  -10.1615    8.0180 O   0  0  0  0  0  0  0  0  0  0  0  0
   -2.2393   -5.0014    2.2760 S   0  0  0  0  0  0  0  0  0  0  0  0
   -2.3606   -8.6727    5.3531 S   0  0  0  0  0  0  0  0  0  0  0  0
    0.8574  -11.0462    6.9609 S   0  0  0  0  0  0  0  0  0  0  0  0
    3.1861   -2.6556    1.5453 H   0  0  0  0  0  0  0  0  0  0  0  0
    1.9956   -3.4047    3.5890 H   0  0  0  0  0  0  0  0  0  0  0  0
    2.2055   -0.8763    0.1205 H   0  0  0  0  0  0  0  0  0  0  0  0
   -0.1685   -2.3821    4.2099 H   0  0  0  0  0  0  0  0  0  0  0  0
    0.0422    0.1526    0.7328 H   0  0  0  0  0  0  0  0  0  0  0  0
   -1.6984   -7.2810    2.6665 H   0  0  0  0  0  0  0  0  0  0  0  0
   -3.0388   -7.1502    1.5178 H   0  0  0  0  0  0  0  0  0  0  0  0
   -4.9898   -2.5167    2.0745 H   0  0  0  0  0  0  0  0  0  0  0  0
   -4.5741   -4.8283    1.4919 H   0  0  0  0  0  0  0  0  0  0  0  0
   -3.2824   -9.1248    3.1820 H   0  0  0  0  0  0  0  0  0  0  0  0
   -4.5524   -8.8188    4.3771 H   0  0  0  0  0  0  0  0  0  0  0  0
   -0.9000  -10.9239    8.5475 H   0  0  0  0  0  0  0  0  0  0  0  0
   -0.7763   -9.4398    7.5707 H   0  0  0  0  0  0  0  0  0  0  0  0
   -1.6467   -0.3977    3.9782 H   0  0  0  0  0  0  0  0  0  0  0  0
   -2.7516   -2.2667    4.0180 H   0  0  0  0  0  0  0  0  0  0  0  0
   -7.1733   -6.4701    5.7518 H   0  0  0  0  0  0  0  0  0  0  0  0
   -2.3994    1.3007    2.6941 H   0  0  0  0  0  0  0  0  0  0  0  0
    1.6735   -9.1841    7.8998 H   0  0  0  0  0  0  0  0  0  0  0  0
  1  2  2  0  0  0  0
  1  3  1  0  0  0  0
  1 36  1  0  0  0  0
  2  4  1  0  0  0  0
  2 37  1  0  0  0  0
  3  5  2  0  0  0  0
  3 38  1  0  0  0  0
  4  6  2  0  0  0  0
  4 39  1  0  0  0  0
  5  6  1  0  0  0  0
  5 40  1  0  0  0  0
  6 18  1  0  0  0  0
  7 19  2  0  0  0  0
  7 22  1  0  0  0  0
  7 34  1  0  0  0  0
  8  9  2  0  0  0  0
  8 11  1  0  0  0  0
  8 23  1  0  0  0  0
  9 13  1  0  0  0  0
  9 16  1  0  0  0  0
 10 14  1  0  0  0  0
 10 23  1  0  0  0  0
 10 25  2  0  0  0  0
 11 26  2  0  0  0  0
 11 30  1  0  0  0  0
 12 18  1  0  0  0  0
 12 24  1  0  0  0  0
 12 27  2  0  0  0  0
 13 33  1  0  0  0  0
 13 41  1  0  0  0  0
 13 42  1  0  0  0  0
 14 15  1  6  0  0  0
 14 24  1  0  0  0  0
 14 43  1  0  0  0  0
 15 23  1  0  0  0  0
 15 33  1  0  0  0  0
 15 44  1  6  0  0  0
 16 34  1  0  0  0  0
 16 45  1  0  0  0  0
 16 46  1  0  0  0  0
 17 22  1  0  0  0  0
 17 35  1  0  0  0  0
 17 47  1  0  0  0  0
 17 48  1  0  0  0  0
 18 31  1  0  0  0  0
 18 49  1  1  0  0  0
 19 20  1  0  0  0  0
 20 21  2  0  0  0  0
 21 22  1  0  0  0  0
 24 50  1  0  0  0  0
 28 35  2  0  0  0  0
 29 35  2  0  0  0  0
 30 51  1  0  0  0  0
 31 52  1  0  0  0  0
 32 35  1  0  0  0  0
 32 53  1  0  0  0  0
M  END
$$$$
DrugBank_6232
 OpenBabel01151909533D

 32 33  0  0  0  0  0  0  0  0999 V2000
    3.1349    1.1835   -4.0615 C   0  0  0  0  0  0  0  0  0  0  0  0
    1.1221    2.2901   -4.8106 C   0  0  0  0  0  0  0  0  0  0  0  0
    3.5603    1.0617   -5.3843 C   0  0  0  0  0  0  0  0  0  0  0  0
    1.5475    2.1683   -6.1335 C   0  0  0  0  0  0  0  0  0  0  0  0
    1.9158    1.7977   -3.7747 C   0  0  0  0  0  0  0  0  0  0  0  0
    2.7666    1.5541   -6.4203 C   0  0  0  0  0  0  0  0  0  0  0  0
    1.5840    3.1645   -0.2728 C   0  0  0  0  0  0  0  0  0  0  0  0
    1.0098    1.9970    0.5296 C   0  0  0  0  0  0  0  0  0  0  0  0
    2.3704    2.7024   -1.4970 C   0  0  0  0  0  0  0  0  0  0  0  0
    0.0418    1.1586   -0.2922 C   0  0  0  0  0  0  0  0  0  0  0  0
    1.4749    1.9244   -2.4029 N   0  0  0  0  0  0  0  0  0  0  0  0
    2.6243   -0.1108   -8.4970 N   0  0  0  0  0  0  0  0  0  0  0  0
    1.9003   -0.3975   -1.3042 O   0  0  0  0  0  0  0  0  0  0  0  0
   -0.2292   -0.0355   -2.6027 O   0  0  0  0  0  0  0  0  0  0  0  0
    2.6518    2.4406   -8.8645 O   0  0  0  0  0  0  0  0  0  0  0  0
    4.7507    1.2844   -8.0862 O   0  0  0  0  0  0  0  0  0  0  0  0
    0.8208    0.4690   -1.7381 S   0  0  0  0  0  0  0  0  0  0  0  0
    3.2991    1.4014   -8.0759 S   0  0  0  0  0  0  0  0  0  0  0  0
    3.7609    0.7967   -3.2615 H   0  0  0  0  0  0  0  0  0  0  0  0
    0.1704    2.7702   -4.5978 H   0  0  0  0  0  0  0  0  0  0  0  0
    4.5117    0.5815   -5.5964 H   0  0  0  0  0  0  0  0  0  0  0  0
    0.9212    2.5551   -6.9331 H   0  0  0  0  0  0  0  0  0  0  0  0
    0.7667    3.8260   -0.5862 H   0  0  0  0  0  0  0  0  0  0  0  0
    2.2432    3.7545    0.3744 H   0  0  0  0  0  0  0  0  0  0  0  0
    1.8305    1.3698    0.8979 H   0  0  0  0  0  0  0  0  0  0  0  0
    0.4872    2.3888    1.4096 H   0  0  0  0  0  0  0  0  0  0  0  0
    2.7459    3.5860   -2.0273 H   0  0  0  0  0  0  0  0  0  0  0  0
    3.2363    2.0957   -1.2074 H   0  0  0  0  0  0  0  0  0  0  0  0
   -0.3378    0.3190    0.2982 H   0  0  0  0  0  0  0  0  0  0  0  0
   -0.8118    1.7553   -0.6300 H   0  0  0  0  0  0  0  0  0  0  0  0
    1.8278   -0.1193   -9.1458 H   0  0  0  0  0  0  0  0  0  0  0  0
    3.2619   -0.9080   -8.6120 H   0  0  0  0  0  0  0  0  0  0  0  0
  1  3  2  0  0  0  0
  1  5  1  0  0  0  0
  1 19  1  0  0  0  0
  2  4  1  0  0  0  0
  2  5  2  0  0  0  0
  2 20  1  0  0  0  0
  3  6  1  0  0  0  0
  3 21  1  0  0  0  0
  4  6  2  0  0  0  0
  4 22  1  0  0  0  0
  5 11  1  0  0  0  0
  6 18  1  0  0  0  0
  7  8  1  0  0  0  0
  7  9  1  0  0  0  0
  7 23  1  0  0  0  0
  7 24  1  0  0  0  0
  8 10  1  0  0  0  0
  8 25  1  0  0  0  0
  8 26  1  0  0  0  0
  9 11  1  0  0  0  0
  9 27  1  0  0  0  0
  9 28  1  0  0  0  0
 10 17  1  0  0  0  0
 10 29  1  0  0  0  0
 10 30  1  0  0  0  0
 11 17  1  0  0  0  0
 12 18  1  0  0  0  0
 12 31  1  0  0  0  0
 12 32  1  0  0  0  0
 13 17  2  0  0  0  0
 14 17  2  0  0  0  0
 15 18  2  0  0  0  0
 16 18  2  0  0  0  0
M  END
$$$$
DrugBank_6235
 OpenBabel01151909533D

 38 41  0  0  1  0  0  0  0  0999 V2000
   -0.3290   -3.5997    0.0422 C   0  0  0  0  0  0  0  0  0  0  0  0
    1.5632    2.4987    2.0927 C   0  0  0  0  0  0  0  0  0  0  0  0
   -1.6692   -3.2045    0.1053 C   0  0  0  0  0  0  0  0  0  0  0  0
    0.2230    2.8942    2.1544 C   0  0  0  0  0  0  0  0  0  0  0  0
    0.6752   -2.6645   -0.2133 C   0  0  0  0  0  0  0  0  0  0  0  0
    1.9715    1.5133    1.1924 C   0  0  0  0  0  0  0  0  0  0  0  0
   -2.0249   -1.8686   -0.0867 C   0  0  0  0  0  0  0  0  0  0  0  0
   -0.7285    2.3100    1.3168 C   0  0  0  0  0  0  0  0  0  0  0  0
    0.3269   -1.3313   -0.4086 C   0  0  0  0  0  0  0  0  0  0  0  0
    1.0284    0.9294    0.3521 C   0  0  0  0  0  0  0  0  0  0  0  0
   -1.0288   -0.9317   -0.3453 C   0  0  0  0  0  0  0  0  0  0  0  0
   -0.3272    1.3291    0.4147 C   0  0  0  0  0  0  0  0  0  0  0  0
   -4.2345    2.8446   -1.3689 C   0  0  0  0  0  0  0  0  0  0  0  0
    1.2614   -0.1605   -0.6869 C   0  0  1  0  0  0  0  0  0  0  0  0
   -1.2007    0.5650   -0.5726 C   0  0  2  0  0  0  0  0  0  0  0  0
    2.7270   -0.5482   -0.8864 C   0  0  0  0  0  0  0  0  0  0  0  0
   -2.7968    2.3914   -1.3147 C   0  0  0  0  0  0  0  0  0  0  0  0
   -2.6535    1.0373   -0.6368 C   0  0  0  0  0  0  0  0  0  0  0  0
   -5.1593    2.2416   -0.8392 O   0  0  0  0  0  0  0  0  0  0  0  0
    0.8129    0.4042   -1.9502 O   0  0  0  0  0  0  0  0  0  0  0  0
   -0.6278    0.8276   -1.8837 O   0  0  0  0  0  0  0  0  0  0  0  0
   -4.3957    4.0086   -2.0450 O   0  0  0  0  0  0  0  0  0  0  0  0
   -0.0681   -4.6434    0.1960 H   0  0  0  0  0  0  0  0  0  0  0  0
    2.2918    2.9611    2.7527 H   0  0  0  0  0  0  0  0  0  0  0  0
   -2.4390   -3.9442    0.3075 H   0  0  0  0  0  0  0  0  0  0  0  0
   -0.0798    3.6612    2.8620 H   0  0  0  0  0  0  0  0  0  0  0  0
    1.7081   -2.9935   -0.2528 H   0  0  0  0  0  0  0  0  0  0  0  0
    3.0155    1.2197    1.1659 H   0  0  0  0  0  0  0  0  0  0  0  0
   -3.0704   -1.5849   -0.0286 H   0  0  0  0  0  0  0  0  0  0  0  0
   -1.7630    2.6297    1.3860 H   0  0  0  0  0  0  0  0  0  0  0  0
    3.3200    0.3437   -1.0788 H   0  0  0  0  0  0  0  0  0  0  0  0
    2.8156   -1.2264   -1.7327 H   0  0  0  0  0  0  0  0  0  0  0  0
    3.1017   -1.0411    0.0085 H   0  0  0  0  0  0  0  0  0  0  0  0
   -2.1700    3.1517   -0.8360 H   0  0  0  0  0  0  0  0  0  0  0  0
   -2.4455    2.3231   -2.3514 H   0  0  0  0  0  0  0  0  0  0  0  0
   -3.2297    0.2944   -1.1961 H   0  0  0  0  0  0  0  0  0  0  0  0
   -3.0588    1.0693    0.3789 H   0  0  0  0  0  0  0  0  0  0  0  0
   -3.5767    4.3933   -2.4236 H   0  0  0  0  0  0  0  0  0  0  0  0
  1  3  2  0  0  0  0
  1  5  1  0  0  0  0
  1 23  1  0  0  0  0
  2  4  2  0  0  0  0
  2  6  1  0  0  0  0
  2 24  1  0  0  0  0
  3  7  1  0  0  0  0
  3 25  1  0  0  0  0
  4  8  1  0  0  0  0
  4 26  1  0  0  0  0
  5  9  2  0  0  0  0
  5 27  1  0  0  0  0
  6 10  2  0  0  0  0
  6 28  1  0  0  0  0
  7 11  2  0  0  0  0
  7 29  1  0  0  0  0
  8 12  2  0  0  0  0
  8 30  1  0  0  0  0
  9 11  1  0  0  0  0
  9 14  1  0  0  0  0
 10 12  1  0  0  0  0
 10 14  1  0  0  0  0
 11 15  1  0  0  0  0
 12 15  1  0  0  0  0
 13 17  1  0  0  0  0
 13 19  2  0  0  0  0
 13 22  1  0  0  0  0
 14 16  1  6  0  0  0
 14 20  1  0  0  0  0
 15 18  1  1  0  0  0
 15 21  1  0  0  0  0
 16 31  1  0  0  0  0
 16 32  1  0  0  0  0
 16 33  1  0  0  0  0
 17 18  1  0  0  0  0
 17 34  1  0  0  0  0
 17 35  1  0  0  0  0
 18 36  1  0  0  0  0
 18 37  1  0  0  0  0
 20 21  1  0  0  0  0
 22 38  1  0  0  0  0
M  END
$$$$
DrugBank_3844
 OpenBabel01151909533D

 16 15  0  0  0  0  0  0  0  0999 V2000
   -3.4322    0.5051    1.5594 C   0  0  0  0  0  0  0  0  0  0  0  0
   -1.9952   -0.7575   -0.0815 C   0  0  0  0  0  0  0  0  0  0  0  0
   -2.0229    0.2747    1.0355 C   0  0  0  0  0  0  0  0  0  0  0  0
   -0.5235    3.8686    0.9839 O   0  0  0  0  0  0  0  0  0  0  0  0
    0.4009    1.7543    2.1652 O   0  0  0  0  0  0  0  0  0  0  0  0
   -1.4963    1.5057    0.5496 O   0  0  0  0  0  0  0  0  0  0  0  0
   -0.9041    2.5623    1.6295 P   0  0  2  0  0  0  0  0  0  0  0  0
   -4.1029    0.8383    0.7616 H   0  0  0  0  0  0  0  0  0  0  0  0
   -3.8336   -0.4177    1.9917 H   0  0  0  0  0  0  0  0  0  0  0  0
   -3.4383    1.2548    2.3584 H   0  0  0  0  0  0  0  0  0  0  0  0
   -2.6317   -0.4545   -0.9184 H   0  0  0  0  0  0  0  0  0  0  0  0
   -2.3418   -1.7285    0.2882 H   0  0  0  0  0  0  0  0  0  0  0  0
   -0.9758   -0.9083   -0.4535 H   0  0  0  0  0  0  0  0  0  0  0  0
   -1.3778   -0.0570    1.8557 H   0  0  0  0  0  0  0  0  0  0  0  0
    1.0912    1.4944    1.5185 H   0  0  0  0  0  0  0  0  0  0  0  0
   -1.8103    2.4912    2.7095 H   0  0  0  0  0  0  0  0  0  0  0  0
  1  3  1  0  0  0  0
  1  8  1  0  0  0  0
  1  9  1  0  0  0  0
  1 10  1  0  0  0  0
  2  3  1  0  0  0  0
  2 11  1  0  0  0  0
  2 12  1  0  0  0  0
  2 13  1  0  0  0  0
  3  6  1  0  0  0  0
  3 14  1  0  0  0  0
  4  7  2  0  0  0  0
  5  7  1  0  0  0  0
  5 15  1  0  0  0  0
  6  7  1  0  0  0  0
  7 16  1  1  0  0  0
M  END
$$$$
DrugBank_1192
 OpenBabel01151909533D

124127  0  0  1  0  0  0  0  0999 V2000
    3.8638    6.5702    0.6254 C   0  0  0  0  0  0  0  0  0  0  0  0
    1.3743    3.6887   -2.5188 C   0  0  0  0  0  0  0  0  0  0  0  0
    2.1316    9.8009   -0.7753 C   0  0  0  0  0  0  0  0  0  0  0  0
    8.7753    2.1852   -0.4474 C   0  0  0  0  0  0  0  0  0  0  0  0
   -1.1603   -3.5581    0.7098 C   0  0  0  0  0  0  0  0  0  0  0  0
    4.5799    4.2028    1.3784 C   0  0  0  0  0  0  0  0  0  0  0  0
    8.0092   -1.0144    3.1246 C   0  0  0  0  0  0  0  0  0  0  0  0
   -0.1814    0.7311   -0.3024 C   0  0  0  0  0  0  0  0  0  0  0  0
    2.4411    5.3462    2.3776 C   0  0  0  0  0  0  0  0  0  0  0  0
    3.7345    6.5821   -0.8982 C   0  0  1  0  0  0  0  0  0  0  0  0
    2.4570    2.6248   -2.6427 C   0  0  1  0  0  0  0  0  0  0  0  0
    4.0933    2.7438    1.5674 C   0  0  1  0  0  0  0  0  0  0  0  0
    4.3514    2.0394   -0.9645 C   0  0  1  0  0  0  0  0  0  0  0  0
    1.8872    7.3482   -2.6624 C   0  0  2  0  0  0  0  0  0  0  0  0
    8.7626   -0.6182    1.8524 C   0  0  1  0  0  0  0  0  0  0  0  0
   -0.4090   -0.7661   -0.5025 C   0  0  1  0  0  0  0  0  0  0  0  0
    2.5789    7.5360   -1.2794 C   0  0  2  0  0  0  0  0  0  0  0  0
    2.8231    2.1406   -1.2167 C   0  0  2  0  0  0  0  0  0  0  0  0
    4.7110    1.7613    0.5293 C   0  0  1  0  0  0  0  0  0  0  0  0
    8.1617    0.6584    1.2487 C   0  0  2  0  0  0  0  0  0  0  0  0
    0.0881   -1.5518    0.7113 C   0  0  2  0  0  0  0  0  0  0  0  0
    6.5062   -1.0809    2.8506 C   0  0  1  0  0  0  0  0  0  0  0  0
    1.0258    6.0587   -2.7408 C   0  0  1  0  0  0  0  0  0  0  0  0
    1.5218   -1.1484    1.0755 C   0  0  2  0  0  0  0  0  0  0  0  0
    1.2479    1.0354    0.1395 C   0  0  1  0  0  0  0  0  0  0  0  0
    6.6398    0.5372    1.1161 C   0  0  1  0  0  0  0  0  0  0  0  0
    3.5206    5.2887    1.3096 C   0  0  1  0  0  0  0  0  0  0  0  0
    2.7642   11.1587   -0.7272 C   0  0  0  0  0  0  0  0  0  0  0  0
    9.3563    2.2644   -1.8267 C   0  0  0  0  0  0  0  0  0  0  0  0
   -1.0769   -5.0136    0.3621 C   0  0  0  0  0  0  0  0  0  0  0  0
    5.1109    6.9408   -1.4628 C   0  0  0  0  0  0  0  0  0  0  0  0
    1.9560    1.5407   -3.5957 C   0  0  0  0  0  0  0  0  0  0  0  0
    4.4365    2.2704    2.9917 C   0  0  0  0  0  0  0  0  0  0  0  0
    4.9999    0.9724   -1.8648 C   0  0  0  0  0  0  0  0  0  0  0  0
    2.8533    7.4854   -3.8446 C   0  0  0  0  0  0  0  0  0  0  0  0
    5.7309   -1.3986    4.1217 C   0  0  0  0  0  0  0  0  0  0  0  0
    0.0669    6.0941   -3.9337 C   0  0  0  0  0  0  0  0  0  0  0  0
    1.9877   -1.8319    2.3576 C   0  0  0  0  0  0  0  0  0  0  0  0
   10.9843   -0.5209    0.9447 C   0  0  0  0  0  0  0  0  0  0  0  0
   10.6232   -1.4170    3.1445 C   0  0  0  0  0  0  0  0  0  0  0  0
   -2.2224   -0.7251   -1.9982 C   0  0  0  0  0  0  0  0  0  0  0  0
   10.1805   -0.4291    2.1621 N   0  0  0  0  0  0  0  0  0  0  0  0
    4.2485    7.5321    1.2816 O   0  0  0  0  0  0  0  0  0  0  0  0
    0.2345    3.4671   -2.1301 O   0  0  0  0  0  0  0  0  0  0  0  0
    0.9647    9.5779   -0.4826 O   0  0  0  0  0  0  0  0  0  0  0  0
    8.4292    3.1592    0.2072 O   0  0  0  0  0  0  0  0  0  0  0  0
   -2.1560   -3.0208    1.1755 O   0  0  0  0  0  0  0  0  0  0  0  0
    1.8824    4.9055   -2.8697 O   0  0  0  0  0  0  0  0  0  0  0  0
    2.1743    4.8597    1.0593 O   0  0  0  0  0  0  0  0  0  0  0  0
    6.0491    0.1835    2.3651 O   0  0  0  0  0  0  0  0  0  0  0  0
    1.6124    0.2632    1.2853 O   0  0  0  0  0  0  0  0  0  0  0  0
    3.0528    8.8862   -1.1883 O   0  0  0  0  0  0  0  0  0  0  0  0
    8.6996    0.8799   -0.0541 O   0  0  0  0  0  0  0  0  0  0  0  0
    0.0284   -2.9475    0.4273 O   0  0  0  0  0  0  0  0  0  0  0  0
    2.1782    0.9021   -0.9312 O   0  0  0  0  0  0  0  0  0  0  0  0
    6.1344    1.8009    0.6857 O   0  0  0  0  0  0  0  0  0  0  0  0
   -1.8033   -1.0123   -0.6724 O   0  0  0  0  0  0  0  0  0  0  0  0
    5.2727    4.4782    2.1843 H   0  0  0  0  0  0  0  0  0  0  0  0
    5.1743    4.2791    0.4621 H   0  0  0  0  0  0  0  0  0  0  0  0
    8.3710   -1.9803    3.4977 H   0  0  0  0  0  0  0  0  0  0  0  0
    8.2013   -0.2673    3.9070 H   0  0  0  0  0  0  0  0  0  0  0  0
   -0.4280    1.2649   -1.2280 H   0  0  0  0  0  0  0  0  0  0  0  0
   -0.8809    1.0893    0.4643 H   0  0  0  0  0  0  0  0  0  0  0  0
    2.4506    4.6270    3.1849 H   0  0  0  0  0  0  0  0  0  0  0  0
    2.0218    6.3077    2.6476 H   0  0  0  0  0  0  0  0  0  0  0  0
    3.4971    5.5610   -1.2059 H   0  0  0  0  0  0  0  0  0  0  0  0
    3.3299    3.1083   -3.1004 H   0  0  0  0  0  0  0  0  0  0  0  0
    3.0054    2.6733    1.4905 H   0  0  0  0  0  0  0  0  0  0  0  0
    4.8081    2.9948   -1.2519 H   0  0  0  0  0  0  0  0  0  0  0  0
    1.1909    8.1953   -2.7535 H   0  0  0  0  0  0  0  0  0  0  0  0
    8.6951   -1.4303    1.1231 H   0  0  0  0  0  0  0  0  0  0  0  0
    0.0944   -1.1128   -1.4107 H   0  0  0  0  0  0  0  0  0  0  0  0
    1.7946    7.4476   -0.5155 H   0  0  0  0  0  0  0  0  0  0  0  0
    2.4116    2.8674   -0.5139 H   0  0  0  0  0  0  0  0  0  0  0  0
    4.3910    0.7442    0.7900 H   0  0  0  0  0  0  0  0  0  0  0  0
    8.4072    1.5318    1.8659 H   0  0  0  0  0  0  0  0  0  0  0  0
   -0.5905   -1.3584    1.5610 H   0  0  0  0  0  0  0  0  0  0  0  0
    6.2854   -1.8521    2.1020 H   0  0  0  0  0  0  0  0  0  0  0  0
    0.4389    5.9763   -1.8169 H   0  0  0  0  0  0  0  0  0  0  0  0
    2.2131   -1.4442    0.2767 H   0  0  0  0  0  0  0  0  0  0  0  0
    1.2869    2.1015    0.4624 H   0  0  0  0  0  0  0  0  0  0  0  0
    6.3701   -0.1980    0.3482 H   0  0  0  0  0  0  0  0  0  0  0  0
    3.1970   11.3314    0.2613 H   0  0  0  0  0  0  0  0  0  0  0  0
    2.0193   11.9235   -0.9609 H   0  0  0  0  0  0  0  0  0  0  0  0
    3.5635   11.2129   -1.4720 H   0  0  0  0  0  0  0  0  0  0  0  0
   10.4440    2.3497   -1.7666 H   0  0  0  0  0  0  0  0  0  0  0  0
    8.9314    3.1187   -2.3596 H   0  0  0  0  0  0  0  0  0  0  0  0
    9.1080    1.3526   -2.3776 H   0  0  0  0  0  0  0  0  0  0  0  0
   -1.3885   -5.1658   -0.6742 H   0  0  0  0  0  0  0  0  0  0  0  0
   -1.7049   -5.5940    1.0427 H   0  0  0  0  0  0  0  0  0  0  0  0
   -0.0425   -5.3532    0.4686 H   0  0  0  0  0  0  0  0  0  0  0  0
    5.3733    7.9552   -1.1708 H   0  0  0  0  0  0  0  0  0  0  0  0
    5.0901    6.8736   -2.5482 H   0  0  0  0  0  0  0  0  0  0  0  0
    5.8569    6.2509   -1.0744 H   0  0  0  0  0  0  0  0  0  0  0  0
    1.0884    1.0438   -3.1652 H   0  0  0  0  0  0  0  0  0  0  0  0
    2.7415    0.8059   -3.7635 H   0  0  0  0  0  0  0  0  0  0  0  0
    1.6758    1.9878   -4.5478 H   0  0  0  0  0  0  0  0  0  0  0  0
    5.5108    2.3166    3.1339 H   0  0  0  0  0  0  0  0  0  0  0  0
    4.0937    1.2495    3.1205 H   0  0  0  0  0  0  0  0  0  0  0  0
    3.9437    2.9160    3.7106 H   0  0  0  0  0  0  0  0  0  0  0  0
    4.5835    0.0003   -1.6232 H   0  0  0  0  0  0  0  0  0  0  0  0
    6.0711    0.9644   -1.6941 H   0  0  0  0  0  0  0  0  0  0  0  0
    4.7964    1.2100   -2.9035 H   0  0  0  0  0  0  0  0  0  0  0  0
    3.5766    6.6745   -3.8189 H   0  0  0  0  0  0  0  0  0  0  0  0
    3.3749    8.4366   -3.7791 H   0  0  0  0  0  0  0  0  0  0  0  0
    2.2956    7.4425   -4.7765 H   0  0  0  0  0  0  0  0  0  0  0  0
    5.9346   -0.6443    4.8822 H   0  0  0  0  0  0  0  0  0  0  0  0
    6.0265   -2.3755    4.5054 H   0  0  0  0  0  0  0  0  0  0  0  0
    4.6606   -1.4101    3.9136 H   0  0  0  0  0  0  0  0  0  0  0  0
    0.6354    6.1757   -4.8573 H   0  0  0  0  0  0  0  0  0  0  0  0
   -0.5972    6.9505   -3.8435 H   0  0  0  0  0  0  0  0  0  0  0  0
   -0.5240    5.1813   -3.9547 H   0  0  0  0  0  0  0  0  0  0  0  0
    1.3265   -1.5647    3.1808 H   0  0  0  0  0  0  0  0  0  0  0  0
    3.0015   -1.5152    2.5985 H   0  0  0  0  0  0  0  0  0  0  0  0
    1.9741   -2.9130    2.2267 H   0  0  0  0  0  0  0  0  0  0  0  0
   12.0421   -0.3790    1.1812 H   0  0  0  0  0  0  0  0  0  0  0  0
   10.6774    0.2478    0.2303 H   0  0  0  0  0  0  0  0  0  0  0  0
   10.8561   -1.5022    0.4801 H   0  0  0  0  0  0  0  0  0  0  0  0
   11.6824   -1.2717    3.3724 H   0  0  0  0  0  0  0  0  0  0  0  0
   10.4830   -2.4283    2.7532 H   0  0  0  0  0  0  0  0  0  0  0  0
   10.0474   -1.3157    4.0683 H   0  0  0  0  0  0  0  0  0  0  0  0
   -3.2926   -0.9239   -2.0940 H   0  0  0  0  0  0  0  0  0  0  0  0
   -1.6613   -1.3459   -2.7012 H   0  0  0  0  0  0  0  0  0  0  0  0
   -2.0294    0.3289   -2.2115 H   0  0  0  0  0  0  0  0  0  0  0  0
  1 10  1  0  0  0  0
  1 43  2  0  0  0  0
  2 11  1  0  0  0  0
  2 44  2  0  0  0  0
  2 48  1  0  0  0  0
  3 28  1  0  0  0  0
  3 45  2  0  0  0  0
  3 52  1  0  0  0  0
  4 29  1  0  0  0  0
  4 46  2  0  0  0  0
  4 53  1  0  0  0  0
  5 30  1  0  0  0  0
  5 47  2  0  0  0  0
  5 54  1  0  0  0  0
  6 12  1  0  0  0  0
  6 27  1  0  0  0  0
  6 58  1  0  0  0  0
  6 59  1  0  0  0  0
  7 15  1  0  0  0  0
  7 22  1  0  0  0  0
  7 60  1  0  0  0  0
  7 61  1  0  0  0  0
  8 16  1  0  0  0  0
  8 25  1  0  0  0  0
  8 62  1  0  0  0  0
  8 63  1  0  0  0  0
  9 27  1  0  0  0  0
  9 49  1  0  0  0  0
  9 64  1  0  0  0  0
  9 65  1  0  0  0  0
 10 17  1  6  0  0  0
 10 31  1  0  0  0  0
 10 66  1  0  0  0  0
 11 18  1  1  0  0  0
 11 32  1  0  0  0  0
 11 67  1  0  0  0  0
 12 19  1  6  0  0  0
 12 33  1  0  0  0  0
 12 68  1  0  0  0  0
 13 18  1  6  0  0  0
 13 34  1  0  0  0  0
 13 69  1  0  0  0  0
 14 17  1  1  0  0  0
 14 35  1  0  0  0  0
 14 70  1  0  0  0  0
 15 20  1  6  0  0  0
 15 42  1  0  0  0  0
 15 71  1  0  0  0  0
 16 21  1  1  0  0  0
 16 57  1  0  0  0  0
 16 72  1  0  0  0  0
 17 52  1  0  0  0  0
 17 73  1  1  0  0  0
 18 55  1  0  0  0  0
 18 74  1  1  0  0  0
 19 13  1  6  0  0  0
 19 56  1  0  0  0  0
 19 75  1  0  0  0  0
 20 26  1  6  0  0  0
 20 53  1  0  0  0  0
 20 76  1  0  0  0  0
 21 24  1  1  0  0  0
 21 54  1  0  0  0  0
 21 77  1  0  0  0  0
 22 36  1  0  0  0  0
 22 50  1  0  0  0  0
 22 78  1  6  0  0  0
 23 14  1  1  0  0  0
 23 37  1  0  0  0  0
 23 48  1  0  0  0  0
 23 79  1  0  0  0  0
 24 38  1  0  0  0  0
 24 51  1  0  0  0  0
 24 80  1  6  0  0  0
 25 51  1  0  0  0  0
 25 55  1  0  0  0  0
 25 81  1  1  0  0  0
 26 50  1  0  0  0  0
 26 56  1  0  0  0  0
 26 82  1  6  0  0  0
 27  1  1  6  0  0  0
 27 49  1  0  0  0  0
 28 83  1  0  0  0  0
 28 84  1  0  0  0  0
 28 85  1  0  0  0  0
 29 86  1  0  0  0  0
 29 87  1  0  0  0  0
 29 88  1  0  0  0  0
 30 89  1  0  0  0  0
 30 90  1  0  0  0  0
 30 91  1  0  0  0  0
 31 92  1  0  0  0  0
 31 93  1  0  0  0  0
 31 94  1  0  0  0  0
 32 95  1  0  0  0  0
 32 96  1  0  0  0  0
 32 97  1  0  0  0  0
 33 98  1  0  0  0  0
 33 99  1  0  0  0  0
 33100  1  0  0  0  0
 34101  1  0  0  0  0
 34102  1  0  0  0  0
 34103  1  0  0  0  0
 35104  1  0  0  0  0
 35105  1  0  0  0  0
 35106  1  0  0  0  0
 36107  1  0  0  0  0
 36108  1  0  0  0  0
 36109  1  0  0  0  0
 37110  1  0  0  0  0
 37111  1  0  0  0  0
 37112  1  0  0  0  0
 38113  1  0  0  0  0
 38114  1  0  0  0  0
 38115  1  0  0  0  0
 39 42  1  0  0  0  0
 39116  1  0  0  0  0
 39117  1  0  0  0  0
 39118  1  0  0  0  0
 40 42  1  0  0  0  0
 40119  1  0  0  0  0
 40120  1  0  0  0  0
 40121  1  0  0  0  0
 41 57  1  0  0  0  0
 41122  1  0  0  0  0
 41123  1  0  0  0  0
 41124  1  0  0  0  0
M  END
$$$$
DrugBank_1212
 OpenBabel01151909533D

 57 63  0  0  1  0  0  0  0  0999 V2000
   -4.7339   -0.7982    0.4850 C   0  0  0  0  0  0  0  0  0  0  0  0
   -3.4180   -0.7621    0.1967 C   0  0  0  0  0  0  0  0  0  0  0  0
   -5.2667   -0.4846    1.8303 C   0  0  0  0  0  0  0  0  0  0  0  0
    5.2800    1.3711   -0.6359 C   0  0  0  0  0  0  0  0  0  0  0  0
   -4.3285    0.0448    2.8831 C   0  0  0  0  0  0  0  0  0  0  0  0
    4.6548    2.4485   -1.4686 C   0  0  0  0  0  0  0  0  0  0  0  0
   -3.0328    0.5776    2.2825 C   0  0  0  0  0  0  0  0  0  0  0  0
    3.1861    2.2863   -1.1373 C   0  0  0  0  0  0  0  0  0  0  0  0
   -0.0945    0.8791    1.6126 C   0  0  0  0  0  0  0  0  0  0  0  0
    1.1982    1.4189    0.9643 C   0  0  0  0  0  0  0  0  0  0  0  0
   -2.2261   -2.2257   -1.5766 C   0  0  0  0  0  0  0  0  0  0  0  0
    2.5846   -1.4841   -2.2277 C   0  0  0  0  0  0  0  0  0  0  0  0
   -2.9641   -0.9754   -1.1965 C   0  0  2  0  0  0  0  0  0  0  0  0
   -1.1252    0.3002    0.6007 C   0  0  1  0  0  0  0  0  0  0  0  0
   -1.5052   -0.9004   -1.5603 C   0  0  1  0  0  0  0  0  0  0  0  0
    1.4669   -0.4837   -2.2426 C   0  0  2  0  0  0  0  0  0  0  0  0
    2.8874   -0.0067   -2.1529 C   0  0  1  0  0  0  0  0  0  0  0  0
   -0.4766   -0.6148   -0.4943 C   0  0  1  0  0  0  0  0  0  0  0  0
    0.7572    0.0938   -1.0507 C   0  0  1  0  0  0  0  0  0  0  0  0
   -2.3712   -0.4003    1.2710 C   0  0  2  0  0  0  0  0  0  0  0  0
    1.8407    0.3653    0.0374 C   0  0  1  0  0  0  0  0  0  0  0  0
    3.0632    0.7934   -0.8523 C   0  0  2  0  0  0  0  0  0  0  0  0
   -1.9601   -1.6904    2.0244 C   0  0  0  0  0  0  0  0  0  0  0  0
    2.2479   -0.8313    0.9458 C   0  0  0  0  0  0  0  0  0  0  0  0
   -6.4574   -0.6773    2.0720 O   0  0  0  0  0  0  0  0  0  0  0  0
    6.4653    1.2904   -0.3537 O   0  0  0  0  0  0  0  0  0  0  0  0
    4.3279    0.4656   -0.2562 O   0  0  0  0  0  0  0  0  0  0  0  0
   -5.4674   -1.0423   -0.2775 H   0  0  0  0  0  0  0  0  0  0  0  0
   -4.8334    0.8581    3.4164 H   0  0  0  0  0  0  0  0  0  0  0  0
   -4.1302   -0.7569    3.6018 H   0  0  0  0  0  0  0  0  0  0  0  0
    5.0232    3.4344   -1.1754 H   0  0  0  0  0  0  0  0  0  0  0  0
    4.8643    2.2588   -2.5247 H   0  0  0  0  0  0  0  0  0  0  0  0
   -3.2449    1.5315    1.7794 H   0  0  0  0  0  0  0  0  0  0  0  0
   -2.3516    0.8049    3.1107 H   0  0  0  0  0  0  0  0  0  0  0  0
    2.9908    2.8824   -0.2391 H   0  0  0  0  0  0  0  0  0  0  0  0
    2.5299    2.6458   -1.9355 H   0  0  0  0  0  0  0  0  0  0  0  0
    0.1642    0.1303    2.3671 H   0  0  0  0  0  0  0  0  0  0  0  0
   -0.5509    1.7115    2.1613 H   0  0  0  0  0  0  0  0  0  0  0  0
    0.9365    2.3263    0.4060 H   0  0  0  0  0  0  0  0  0  0  0  0
    1.9008    1.7270    1.7479 H   0  0  0  0  0  0  0  0  0  0  0  0
   -1.9985   -2.9577   -0.8126 H   0  0  0  0  0  0  0  0  0  0  0  0
   -2.4441   -2.6635   -2.5443 H   0  0  0  0  0  0  0  0  0  0  0  0
    2.6940   -2.1420   -1.3843 H   0  0  0  0  0  0  0  0  0  0  0  0
    2.8110   -1.9847   -3.1647 H   0  0  0  0  0  0  0  0  0  0  0  0
   -3.6452   -0.5721   -1.9430 H   0  0  0  0  0  0  0  0  0  0  0  0
   -1.5181    1.1830    0.0685 H   0  0  0  0  0  0  0  0  0  0  0  0
   -1.2900   -0.4313   -2.5130 H   0  0  0  0  0  0  0  0  0  0  0  0
    0.9399   -0.3301   -3.1756 H   0  0  0  0  0  0  0  0  0  0  0  0
    3.3419    0.4447   -3.0249 H   0  0  0  0  0  0  0  0  0  0  0  0
   -0.1593   -1.5725   -0.0746 H   0  0  0  0  0  0  0  0  0  0  0  0
    0.4046    1.0710   -1.4230 H   0  0  0  0  0  0  0  0  0  0  0  0
   -1.2265   -1.4341    2.7765 H   0  0  0  0  0  0  0  0  0  0  0  0
   -1.5384   -2.3878    1.3135 H   0  0  0  0  0  0  0  0  0  0  0  0
   -2.8391   -2.1158    2.4891 H   0  0  0  0  0  0  0  0  0  0  0  0
    2.7023   -1.5890    0.3261 H   0  0  0  0  0  0  0  0  0  0  0  0
    1.3585   -1.2142    1.4220 H   0  0  0  0  0  0  0  0  0  0  0  0
    2.9496   -0.4741    1.6839 H   0  0  0  0  0  0  0  0  0  0  0  0
  1  2  2  0  0  0  0
  1  3  1  0  0  0  0
  1 28  1  0  0  0  0
  2 13  1  0  0  0  0
  2 20  1  0  0  0  0
  3  5  1  0  0  0  0
  3 25  2  0  0  0  0
  4  6  1  0  0  0  0
  4 26  2  0  0  0  0
  4 27  1  0  0  0  0
  5  7  1  0  0  0  0
  5 29  1  0  0  0  0
  5 30  1  0  0  0  0
  6  8  1  0  0  0  0
  6 31  1  0  0  0  0
  6 32  1  0  0  0  0
  7 20  1  0  0  0  0
  7 33  1  0  0  0  0
  7 34  1  0  0  0  0
  8 22  1  0  0  0  0
  8 35  1  0  0  0  0
  8 36  1  0  0  0  0
  9 10  1  0  0  0  0
  9 14  1  0  0  0  0
  9 37  1  0  0  0  0
  9 38  1  0  0  0  0
 10 21  1  0  0  0  0
 10 39  1  0  0  0  0
 10 40  1  0  0  0  0
 11 13  1  0  0  0  0
 11 15  1  0  0  0  0
 11 41  1  0  0  0  0
 11 42  1  0  0  0  0
 12 16  1  0  0  0  0
 12 17  1  0  0  0  0
 12 43  1  0  0  0  0
 12 44  1  0  0  0  0
 13 15  1  6  0  0  0
 13 45  1  0  0  0  0
 14 18  1  6  0  0  0
 14 46  1  0  0  0  0
 15 18  1  1  0  0  0
 15 47  1  0  0  0  0
 16 17  1  6  0  0  0
 16 48  1  0  0  0  0
 17 22  1  1  0  0  0
 17 49  1  0  0  0  0
 18 19  1  6  0  0  0
 18 50  1  0  0  0  0
 19 16  1  6  0  0  0
 19 51  1  0  0  0  0
 20 14  1  6  0  0  0
 20 23  1  0  0  0  0
 21 19  1  6  0  0  0
 21 24  1  0  0  0  0
 22 21  1  1  0  0  0
 22 27  1  0  0  0  0
 23 52  1  0  0  0  0
 23 53  1  0  0  0  0
 23 54  1  0  0  0  0
 24 55  1  0  0  0  0
 24 56  1  0  0  0  0
 24 57  1  0  0  0  0
M  END
$$$$
DrugBank_1216
 OpenBabel01151909533D

 35 35  0  0  0  0  0  0  0  0999 V2000
   -1.6791   -3.1976    2.1729 C   0  0  0  0  0  0  0  0  0  0  0  0
   -1.7110   -2.1232    1.2840 C   0  0  0  0  0  0  0  0  0  0  0  0
   -1.8811   -2.9812    3.5361 C   0  0  0  0  0  0  0  0  0  0  0  0
   -2.1466   -0.6160    3.1213 C   0  0  0  0  0  0  0  0  0  0  0  0
   -1.9447   -0.8324    1.7581 C   0  0  0  0  0  0  0  0  0  0  0  0
   -2.1148   -1.6904    4.0102 C   0  0  0  0  0  0  0  0  0  0  0  0
   -1.1467   -1.2162    6.0961 C   0  0  0  0  0  0  0  0  0  0  0  0
   -0.2880   -0.7222    8.3641 C   0  0  0  0  0  0  0  0  0  0  0  0
   -2.7205   -1.0444    8.0591 C   0  0  0  0  0  0  0  0  0  0  0  0
   -3.0898    0.1087   -0.2360 C   0  0  0  0  0  0  0  0  0  0  0  0
   -0.6221    0.4520    0.0919 C   0  0  0  0  0  0  0  0  0  0  0  0
   -2.2566    1.6722    1.4887 C   0  0  0  0  0  0  0  0  0  0  0  0
   -1.3915   -1.0048    7.4575 N   0  0  0  0  0  0  0  0  0  0  0  0
   -1.9788    0.3467    0.7827 N   0  3  0  0  0  0  0  0  0  0  0  0
   -0.0302   -1.1816    5.5800 O   0  0  0  0  0  0  0  0  0  0  0  0
   -2.3123   -1.4793    5.3401 O   0  0  0  0  0  0  0  0  0  0  0  0
   -1.4970   -4.2027    1.8039 H   0  0  0  0  0  0  0  0  0  0  0  0
   -1.5524   -2.3016    0.2237 H   0  0  0  0  0  0  0  0  0  0  0  0
   -1.8556   -3.8223    4.2236 H   0  0  0  0  0  0  0  0  0  0  0  0
   -2.3287    0.3889    3.4953 H   0  0  0  0  0  0  0  0  0  0  0  0
   -0.1157    0.3557    8.4218 H   0  0  0  0  0  0  0  0  0  0  0  0
    0.6261   -1.2061    8.0093 H   0  0  0  0  0  0  0  0  0  0  0  0
   -0.5164   -1.0962    9.3657 H   0  0  0  0  0  0  0  0  0  0  0  0
   -2.9531   -2.0600    8.3898 H   0  0  0  0  0  0  0  0  0  0  0  0
   -3.4741   -0.7298    7.3320 H   0  0  0  0  0  0  0  0  0  0  0  0
   -2.7648   -0.3745    8.9220 H   0  0  0  0  0  0  0  0  0  0  0  0
   -3.1005    0.9571   -0.9227 H   0  0  0  0  0  0  0  0  0  0  0  0
   -2.8662   -0.8206   -0.7634 H   0  0  0  0  0  0  0  0  0  0  0  0
   -4.0326    0.0334    0.3093 H   0  0  0  0  0  0  0  0  0  0  0  0
   -0.6637    1.2962   -0.5988 H   0  0  0  0  0  0  0  0  0  0  0  0
    0.1339    0.6125    0.8630 H   0  0  0  0  0  0  0  0  0  0  0  0
   -0.4456   -0.4836   -0.4421 H   0  0  0  0  0  0  0  0  0  0  0  0
   -2.2652    2.4584    0.7316 H   0  0  0  0  0  0  0  0  0  0  0  0
   -3.2272    1.5913    1.9818 H   0  0  0  0  0  0  0  0  0  0  0  0
   -1.4593    1.8368    2.2161 H   0  0  0  0  0  0  0  0  0  0  0  0
  1  2  2  0  0  0  0
  1  3  1  0  0  0  0
  1 17  1  0  0  0  0
  2  5  1  0  0  0  0
  2 18  1  0  0  0  0
  3  6  2  0  0  0  0
  3 19  1  0  0  0  0
  4  5  2  0  0  0  0
  4  6  1  0  0  0  0
  4 20  1  0  0  0  0
  5 14  1  0  0  0  0
  6 16  1  0  0  0  0
  7 13  1  0  0  0  0
  7 15  2  0  0  0  0
  7 16  1  0  0  0  0
  8 13  1  0  0  0  0
  8 21  1  0  0  0  0
  8 22  1  0  0  0  0
  8 23  1  0  0  0  0
  9 13  1  0  0  0  0
  9 24  1  0  0  0  0
  9 25  1  0  0  0  0
  9 26  1  0  0  0  0
 10 14  1  0  0  0  0
 10 27  1  0  0  0  0
 10 28  1  0  0  0  0
 10 29  1  0  0  0  0
 11 14  1  0  0  0  0
 11 30  1  0  0  0  0
 11 31  1  0  0  0  0
 11 32  1  0  0  0  0
 12 14  1  0  0  0  0
 12 33  1  0  0  0  0
 12 34  1  0  0  0  0
 12 35  1  0  0  0  0
M  CHG  1  14   1
M  END
$$$$
DrugBank_3913
 OpenBabel01151909533D

 32 32  0  0  1  0  0  0  0  0999 V2000
   -2.4292   -1.9596    1.8274 C   0  0  0  0  0  0  0  0  0  0  0  0
    1.6045    4.9950   -1.8295 C   0  0  0  0  0  0  0  0  0  0  0  0
   -0.6230    0.7797   -0.2110 C   0  0  0  0  0  0  0  0  0  0  0  0
   -1.0986   -0.5943    0.2013 C   0  0  2  0  0  0  0  0  0  0  0  0
    0.6844    0.4327   -0.8778 C   0  0  2  0  0  0  0  0  0  0  0  0
    1.0108    2.6226   -2.4946 C   0  0  0  0  0  0  0  0  0  0  0  0
   -2.0581   -0.5689    1.3761 C   0  0  1  0  0  0  0  0  0  0  0  0
    1.6651    3.9391   -2.9209 C   0  0  2  0  0  0  0  0  0  0  0  0
    1.2387   -0.6057   -0.0099 N   0  0  0  0  0  0  0  0  0  0  0  0
   -3.3075    0.1130    0.9721 N   0  0  0  0  0  0  0  0  0  0  0  0
    3.0086    3.7419   -3.4048 N   0  0  0  0  0  0  0  0  0  0  0  0
   -3.3331   -2.6485    1.3767 O   0  0  0  0  0  0  0  0  0  0  0  0
    2.5940    5.5294   -1.3436 O   0  0  0  0  0  0  0  0  0  0  0  0
    0.0865   -1.3138    0.5571 O   0  0  0  0  0  0  0  0  0  0  0  0
   -1.5969   -2.3759    2.8172 O   0  0  0  0  0  0  0  0  0  0  0  0
    0.3421    5.2808   -1.4304 O   0  0  0  0  0  0  0  0  0  0  0  0
    1.7701    1.8703   -1.0358 S   0  0  0  0  0  0  0  0  0  0  0  0
   -1.3343    1.2795   -0.8761 H   0  0  0  0  0  0  0  0  0  0  0  0
   -0.4701    1.4143    0.6722 H   0  0  0  0  0  0  0  0  0  0  0  0
   -1.5617   -1.1153   -0.6456 H   0  0  0  0  0  0  0  0  0  0  0  0
    0.5056    0.0205   -1.8780 H   0  0  0  0  0  0  0  0  0  0  0  0
    1.0775    1.8934   -3.3092 H   0  0  0  0  0  0  0  0  0  0  0  0
   -0.0506    2.7770   -2.2736 H   0  0  0  0  0  0  0  0  0  0  0  0
   -1.6367   -0.0218    2.2267 H   0  0  0  0  0  0  0  0  0  0  0  0
    1.1099    4.3504   -3.7724 H   0  0  0  0  0  0  0  0  0  0  0  0
    1.6496   -0.1822    0.8212 H   0  0  0  0  0  0  0  0  0  0  0  0
   -3.2202    0.8947    0.3743 H   0  0  0  0  0  0  0  0  0  0  0  0
   -4.1273   -0.1160    1.4739 H   0  0  0  0  0  0  0  0  0  0  0  0
    3.6456    4.5204   -3.4069 H   0  0  0  0  0  0  0  0  0  0  0  0
    3.2250    2.9019   -3.9144 H   0  0  0  0  0  0  0  0  0  0  0  0
   -0.9340   -1.6911    3.0495 H   0  0  0  0  0  0  0  0  0  0  0  0
   -0.3259    4.7608   -1.9261 H   0  0  0  0  0  0  0  0  0  0  0  0
  1  7  1  0  0  0  0
  1 12  2  0  0  0  0
  1 15  1  0  0  0  0
  2  8  1  0  0  0  0
  2 13  2  0  0  0  0
  2 16  1  0  0  0  0
  3  4  1  0  0  0  0
  3  5  1  0  0  0  0
  3 18  1  0  0  0  0
  3 19  1  0  0  0  0
  4  7  1  0  0  0  0
  4 14  1  0  0  0  0
  4 20  1  6  0  0  0
  5  9  1  0  0  0  0
  5 17  1  0  0  0  0
  5 21  1  6  0  0  0
  6  8  1  0  0  0  0
  6 17  1  0  0  0  0
  6 22  1  0  0  0  0
  6 23  1  0  0  0  0
  7 10  1  0  0  0  0
  7 24  1  1  0  0  0
  8 11  1  0  0  0  0
  8 25  1  6  0  0  0
  9 14  1  0  0  0  0
  9 26  1  0  0  0  0
 10 27  1  0  0  0  0
 10 28  1  0  0  0  0
 11 29  1  0  0  0  0
 11 30  1  0  0  0  0
 15 31  1  0  0  0  0
 16 32  1  0  0  0  0
M  END
$$$$
DrugBank_6295
 OpenBabel01151909533D

 49 52  0  0  0  0  0  0  0  0999 V2000
    4.4155    4.1674    1.5267 C   0  0  0  0  0  0  0  0  0  0  0  0
    5.1207    2.9990    1.2387 C   0  0  0  0  0  0  0  0  0  0  0  0
   -1.2368    1.6564    2.6866 C   0  0  0  0  0  0  0  0  0  0  0  0
   -0.2522    3.1898    1.1003 C   0  0  0  0  0  0  0  0  0  0  0  0
    3.5152    4.1941    2.5919 C   0  0  0  0  0  0  0  0  0  0  0  0
    4.9258    1.8572    2.0158 C   0  0  0  0  0  0  0  0  0  0  0  0
   -1.5199    2.7220    3.5410 C   0  0  0  0  0  0  0  0  0  0  0  0
   -0.5352    4.2554    1.9547 C   0  0  0  0  0  0  0  0  0  0  0  0
    0.9419   -1.8307    2.6441 C   0  0  0  0  0  0  0  0  0  0  0  0
    1.7183   -2.0643    3.7608 C   0  0  0  0  0  0  0  0  0  0  0  0
   -0.6029    1.8903    1.4662 C   0  0  0  0  0  0  0  0  0  0  0  0
    3.3203    3.0522    3.3690 C   0  0  0  0  0  0  0  0  0  0  0  0
    4.0255    1.8838    3.0810 C   0  0  0  0  0  0  0  0  0  0  0  0
   -1.1691    4.0215    3.1751 C   0  0  0  0  0  0  0  0  0  0  0  0
    1.2149   -0.6633    1.9608 C   0  0  0  0  0  0  0  0  0  0  0  0
    2.8588   -0.1251    3.4355 C   0  0  0  0  0  0  0  0  0  0  0  0
   -0.3063    0.7745    0.5710 C   0  0  0  0  0  0  0  0  0  0  0  0
    0.4501   -0.3186    0.7611 C   0  0  0  0  0  0  0  0  0  0  0  0
   -0.7813    0.6519   -0.8384 C   0  0  0  0  0  0  0  0  0  0  0  0
    4.9571   -1.9731   -1.4235 C   0  0  0  0  0  0  0  0  0  0  0  0
    3.5851   -2.6045   -1.3198 C   0  0  0  0  0  0  0  0  0  0  0  0
    1.3464   -2.1597   -0.7672 C   0  0  0  0  0  0  0  0  0  0  0  0
    2.6891   -1.2297    4.1868 N   0  0  0  0  0  0  0  0  0  0  0  0
    2.1696    0.2157    2.3299 N   0  0  0  0  0  0  0  0  0  0  0  0
    0.4531   -1.1103   -0.3565 N   0  0  0  0  0  0  0  0  0  0  0  0
   -1.5038    1.4403   -1.4235 O   0  0  0  0  0  0  0  0  0  0  0  0
   -0.2702   -0.5051   -1.3735 O   0  0  0  0  0  0  0  0  0  0  0  0
    2.4375    3.0909    4.4058 O   0  0  0  0  0  0  0  0  0  0  0  0
    3.8408    0.7489    3.8406 O   0  0  0  0  0  0  0  0  0  0  0  0
    2.6553   -1.6224   -0.8830 O   0  0  0  0  0  0  0  0  0  0  0  0
   -1.4424    5.0450    3.9946 F   0  0  0  0  0  0  0  0  0  0  0  0
    4.5676    5.0565    0.9214 H   0  0  0  0  0  0  0  0  0  0  0  0
    5.8215    2.9780    0.4096 H   0  0  0  0  0  0  0  0  0  0  0  0
   -1.5166    0.6489    2.9854 H   0  0  0  0  0  0  0  0  0  0  0  0
    0.2424    3.3884    0.1524 H   0  0  0  0  0  0  0  0  0  0  0  0
    2.9691    5.1076    2.8109 H   0  0  0  0  0  0  0  0  0  0  0  0
    5.4772    0.9498    1.7852 H   0  0  0  0  0  0  0  0  0  0  0  0
   -2.0134    2.5402    4.4910 H   0  0  0  0  0  0  0  0  0  0  0  0
   -0.2626    5.2674    1.6699 H   0  0  0  0  0  0  0  0  0  0  0  0
    0.1725   -2.5281    2.3369 H   0  0  0  0  0  0  0  0  0  0  0  0
    1.5771   -2.9563    4.3623 H   0  0  0  0  0  0  0  0  0  0  0  0
    4.9545   -1.1503   -2.1437 H   0  0  0  0  0  0  0  0  0  0  0  0
    5.2802   -1.5900   -0.4500 H   0  0  0  0  0  0  0  0  0  0  0  0
    5.7001   -2.7141   -1.7364 H   0  0  0  0  0  0  0  0  0  0  0  0
    3.5945   -3.4267   -0.5980 H   0  0  0  0  0  0  0  0  0  0  0  0
    3.2634   -2.9861   -2.2935 H   0  0  0  0  0  0  0  0  0  0  0  0
    0.9979   -2.5437   -1.7307 H   0  0  0  0  0  0  0  0  0  0  0  0
    1.3156   -2.9471   -0.0080 H   0  0  0  0  0  0  0  0  0  0  0  0
    2.4070    2.2302    4.8523 H   0  0  0  0  0  0  0  0  0  0  0  0
  1  2  2  0  0  0  0
  1  5  1  0  0  0  0
  1 32  1  0  0  0  0
  2  6  1  0  0  0  0
  2 33  1  0  0  0  0
  3  7  2  0  0  0  0
  3 11  1  0  0  0  0
  3 34  1  0  0  0  0
  4  8  1  0  0  0  0
  4 11  2  0  0  0  0
  4 35  1  0  0  0  0
  5 12  2  0  0  0  0
  5 36  1  0  0  0  0
  6 13  2  0  0  0  0
  6 37  1  0  0  0  0
  7 14  1  0  0  0  0
  7 38  1  0  0  0  0
  8 14  2  0  0  0  0
  8 39  1  0  0  0  0
  9 10  2  0  0  0  0
  9 15  1  0  0  0  0
  9 40  1  0  0  0  0
 10 23  1  0  0  0  0
 10 41  1  0  0  0  0
 11 17  1  0  0  0  0
 12 13  1  0  0  0  0
 12 28  1  0  0  0  0
 13 29  1  0  0  0  0
 14 31  1  0  0  0  0
 15 18  1  0  0  0  0
 15 24  2  0  0  0  0
 16 23  2  0  0  0  0
 16 24  1  0  0  0  0
 16 29  1  0  0  0  0
 17 18  2  0  0  0  0
 17 19  1  0  0  0  0
 18 25  1  0  0  0  0
 19 26  2  0  0  0  0
 19 27  1  0  0  0  0
 20 21  1  0  0  0  0
 20 42  1  0  0  0  0
 20 43  1  0  0  0  0
 20 44  1  0  0  0  0
 21 30  1  0  0  0  0
 21 45  1  0  0  0  0
 21 46  1  0  0  0  0
 22 25  1  0  0  0  0
 22 30  1  0  0  0  0
 22 47  1  0  0  0  0
 22 48  1  0  0  0  0
 25 27  1  0  0  0  0
 28 49  1  0  0  0  0
M  END
$$$$
DrugBank_6304
 OpenBabel01151909533D

 61 60  0  0  1  0  0  0  0  0999 V2000
    6.3079    6.5678   -0.5730 C   0  0  0  0  0  0  0  0  0  0  0  0
    4.7458    4.1517   -3.2992 C   0  0  0  0  0  0  0  0  0  0  0  0
   11.4577    6.9552   -2.5846 C   0  0  0  0  0  0  0  0  0  0  0  0
   16.6783    4.7912   -5.5561 C   0  0  0  0  0  0  0  0  0  0  0  0
    6.8237    6.1417   -4.3666 C   0  0  0  0  0  0  0  0  0  0  0  0
    6.3569    5.3591   -6.6846 C   0  0  0  0  0  0  0  0  0  0  0  0
    5.7085    5.1927   -0.3391 C   0  0  0  0  0  0  0  0  0  0  0  0
   12.5897    5.9710   -2.8111 C   0  0  0  0  0  0  0  0  0  0  0  0
   15.5269    5.7652   -5.3631 C   0  0  0  0  0  0  0  0  0  0  0  0
   13.4915    6.3511   -3.9867 C   0  0  0  0  0  0  0  0  0  0  0  0
   14.6229    5.3418   -4.2050 C   0  0  0  0  0  0  0  0  0  0  0  0
    4.3493    5.0283   -1.0052 C   0  0  0  0  0  0  0  0  0  0  0  0
    8.3338    7.9049   -0.0251 C   0  0  0  0  0  0  0  0  0  0  0  0
    7.2687    3.7395   -4.9722 C   0  0  0  0  0  0  0  0  0  0  0  0
    9.2852    7.9299   -1.2136 C   0  0  0  0  0  0  0  0  0  0  0  0
    4.8658    4.6016   -4.7537 C   0  0  1  0  0  0  0  0  0  0  0  0
    6.3187    4.9405   -5.2013 C   0  0  0  0  0  0  0  0  0  0  0  0
    7.5447    6.6964    0.0416 N   0  0  0  0  0  0  0  0  0  0  0  0
    4.4808    5.2007   -2.4336 N   0  0  0  0  0  0  0  0  0  0  0  0
    5.7491    7.4416   -1.2303 O   0  0  0  0  0  0  0  0  0  0  0  0
    4.8963    2.9795   -2.9596 O   0  0  0  0  0  0  0  0  0  0  0  0
   11.2413    7.9308   -3.2924 O   0  0  0  0  0  0  0  0  0  0  0  0
   11.1268    3.5019   -5.4308 O   0  0  0  0  0  0  0  0  0  0  0  0
    4.3552    3.5352   -5.5494 O   0  0  0  0  0  0  0  0  0  0  0  0
    9.7851    3.5622   -3.2164 O   0  0  0  0  0  0  0  0  0  0  0  0
    8.5960    4.0511   -5.3818 O   0  0  0  0  0  0  0  0  0  0  0  0
    9.8101    3.1517   -4.7892 P   0  0  1  0  0  0  0  0  0  0  0  0
   10.4990    6.5770   -1.1515 S   0  0  0  0  0  0  0  0  0  0  0  0
   17.2823    4.7125   -4.6465 H   0  0  0  0  0  0  0  0  0  0  0  0
   17.3302    5.1116   -6.3750 H   0  0  0  0  0  0  0  0  0  0  0  0
   16.2954    3.7945   -5.7968 H   0  0  0  0  0  0  0  0  0  0  0  0
    6.8198    5.9043   -3.2964 H   0  0  0  0  0  0  0  0  0  0  0  0
    6.1922    7.0262   -4.5070 H   0  0  0  0  0  0  0  0  0  0  0  0
    7.8461    6.4220   -4.6433 H   0  0  0  0  0  0  0  0  0  0  0  0
    6.0101    4.5514   -7.3392 H   0  0  0  0  0  0  0  0  0  0  0  0
    7.3760    5.6154   -6.9954 H   0  0  0  0  0  0  0  0  0  0  0  0
    5.7145    6.2248   -6.8760 H   0  0  0  0  0  0  0  0  0  0  0  0
    6.4089    4.4408   -0.7235 H   0  0  0  0  0  0  0  0  0  0  0  0
    5.6184    5.0345    0.7429 H   0  0  0  0  0  0  0  0  0  0  0  0
   12.1830    4.9660   -2.9721 H   0  0  0  0  0  0  0  0  0  0  0  0
   13.1930    5.9525   -1.8954 H   0  0  0  0  0  0  0  0  0  0  0  0
   14.9434    5.8207   -6.2896 H   0  0  0  0  0  0  0  0  0  0  0  0
   15.9310    6.7665   -5.1737 H   0  0  0  0  0  0  0  0  0  0  0  0
   13.9297    7.3358   -3.7826 H   0  0  0  0  0  0  0  0  0  0  0  0
   12.8985    6.4506   -4.9038 H   0  0  0  0  0  0  0  0  0  0  0  0
   14.2078    4.3489   -4.4126 H   0  0  0  0  0  0  0  0  0  0  0  0
   15.2188    5.2558   -3.2882 H   0  0  0  0  0  0  0  0  0  0  0  0
    3.6383    5.7648   -0.6156 H   0  0  0  0  0  0  0  0  0  0  0  0
    3.9363    4.0354   -0.7970 H   0  0  0  0  0  0  0  0  0  0  0  0
    7.6252    8.7355   -0.1093 H   0  0  0  0  0  0  0  0  0  0  0  0
    8.8646    8.0146    0.9264 H   0  0  0  0  0  0  0  0  0  0  0  0
    6.9439    2.8667   -5.5479 H   0  0  0  0  0  0  0  0  0  0  0  0
    7.3022    3.4597   -3.9138 H   0  0  0  0  0  0  0  0  0  0  0  0
    8.7335    7.8577   -2.1566 H   0  0  0  0  0  0  0  0  0  0  0  0
    9.8406    8.8730   -1.2174 H   0  0  0  0  0  0  0  0  0  0  0  0
    4.2132    5.4682   -4.9188 H   0  0  0  0  0  0  0  0  0  0  0  0
    7.9123    5.9053    0.5621 H   0  0  0  0  0  0  0  0  0  0  0  0
    4.3996    6.1436   -2.8017 H   0  0  0  0  0  0  0  0  0  0  0  0
    3.4328    3.4063   -5.2794 H   0  0  0  0  0  0  0  0  0  0  0  0
    9.9133    4.5041   -2.9742 H   0  0  0  0  0  0  0  0  0  0  0  0
    9.2930    1.8381   -4.7982 H   0  0  0  0  0  0  0  0  0  0  0  0
  1  7  1  0  0  0  0
  1 18  1  0  0  0  0
  1 20  2  0  0  0  0
  2 16  1  0  0  0  0
  2 19  1  0  0  0  0
  2 21  2  0  0  0  0
  3  8  1  0  0  0  0
  3 22  2  0  0  0  0
  3 28  1  0  0  0  0
  4  9  1  0  0  0  0
  4 29  1  0  0  0  0
  4 30  1  0  0  0  0
  4 31  1  0  0  0  0
  5 17  1  0  0  0  0
  5 32  1  0  0  0  0
  5 33  1  0  0  0  0
  5 34  1  0  0  0  0
  6 17  1  0  0  0  0
  6 35  1  0  0  0  0
  6 36  1  0  0  0  0
  6 37  1  0  0  0  0
  7 12  1  0  0  0  0
  7 38  1  0  0  0  0
  7 39  1  0  0  0  0
  8 10  1  0  0  0  0
  8 40  1  0  0  0  0
  8 41  1  0  0  0  0
  9 11  1  0  0  0  0
  9 42  1  0  0  0  0
  9 43  1  0  0  0  0
 10 11  1  0  0  0  0
 10 44  1  0  0  0  0
 10 45  1  0  0  0  0
 11 46  1  0  0  0  0
 11 47  1  0  0  0  0
 12 19  1  0  0  0  0
 12 48  1  0  0  0  0
 12 49  1  0  0  0  0
 13 15  1  0  0  0  0
 13 18  1  0  0  0  0
 13 50  1  0  0  0  0
 13 51  1  0  0  0  0
 14 17  1  0  0  0  0
 14 26  1  0  0  0  0
 14 52  1  0  0  0  0
 14 53  1  0  0  0  0
 15 28  1  0  0  0  0
 15 54  1  0  0  0  0
 15 55  1  0  0  0  0
 16 17  1  0  0  0  0
 16 24  1  0  0  0  0
 16 56  1  6  0  0  0
 18 57  1  0  0  0  0
 19 58  1  0  0  0  0
 23 27  2  0  0  0  0
 24 59  1  0  0  0  0
 25 27  1  0  0  0  0
 25 60  1  0  0  0  0
 26 27  1  0  0  0  0
 27 61  1  6  0  0  0
M  END
$$$$
DrugBank_6305
 OpenBabel01151909533D

 64 63  0  0  1  0  0  0  0  0999 V2000
    6.3079    6.5678   -0.5730 C   0  0  0  0  0  0  0  0  0  0  0  0
    4.2261    5.2851    2.8596 C   0  0  0  0  0  0  0  0  0  0  0  0
    7.7813    9.4752    3.7838 C   0  0  0  0  0  0  0  0  0  0  0  0
    6.5553   11.8420   10.8901 C   0  0  0  0  0  0  0  0  0  0  0  0
    3.5442    7.8028    5.7814 C   0  0  0  0  0  0  0  0  0  0  0  0
    2.0346    6.0406    4.8764 C   0  0  0  0  0  0  0  0  0  0  0  0
    5.7085    5.1927   -0.3391 C   0  0  0  0  0  0  0  0  0  0  0  0
    7.8996    9.1542    5.2618 C   0  0  0  0  0  0  0  0  0  0  0  0
    7.1117   10.7311   10.0139 C   0  0  0  0  0  0  0  0  0  0  0  0
    7.3494   10.2604    6.1635 C   0  0  0  0  0  0  0  0  0  0  0  0
    6.9525   11.0563    8.5289 C   0  0  0  0  0  0  0  0  0  0  0  0
    7.4840    9.9214    7.6513 C   0  0  0  0  0  0  0  0  0  0  0  0
    4.3659    5.2561    0.3761 C   0  0  0  0  0  0  0  0  0  0  0  0
    8.3300    7.9077   -0.0181 C   0  0  0  0  0  0  0  0  0  0  0  0
    2.7310    7.9741    3.4054 C   0  0  0  0  0  0  0  0  0  0  0  0
    8.0228    8.8808    1.1119 C   0  0  0  0  0  0  0  0  0  0  0  0
    4.4521    6.1945    4.0656 C   0  0  1  0  0  0  0  0  0  0  0  0
    3.1909    6.9925    4.5111 C   0  0  0  0  0  0  0  0  0  0  0  0
    7.5417    6.6987    0.0473 N   0  0  0  0  0  0  0  0  0  0  0  0
    4.5244    5.9053    1.6570 N   0  0  0  0  0  0  0  0  0  0  0  0
    5.7515    7.4398   -1.2349 O   0  0  0  0  0  0  0  0  0  0  0  0
    3.8017    4.1366    2.9733 O   0  0  0  0  0  0  0  0  0  0  0  0
    7.3413   10.5286    3.3409 O   0  0  0  0  0  0  0  0  0  0  0  0
    4.5635   11.0384    1.8552 O   0  0  0  0  0  0  0  0  0  0  0  0
    4.8877    5.3526    5.1298 O   0  0  0  0  0  0  0  0  0  0  0  0
    3.3573    9.1089    0.6186 O   0  0  0  0  0  0  0  0  0  0  0  0
    3.7543    8.9147    3.0979 O   0  0  0  0  0  0  0  0  0  0  0  0
    3.4514   10.0280    1.9562 P   0  0  1  0  0  0  0  0  0  0  0  0
    8.3022    8.1423    2.7503 S   0  0  0  0  0  0  0  0  0  0  0  0
    5.4956   12.0158   10.6777 H   0  0  0  0  0  0  0  0  0  0  0  0
    7.0957   12.7759   10.7067 H   0  0  0  0  0  0  0  0  0  0  0  0
    6.6570   11.5931   11.9513 H   0  0  0  0  0  0  0  0  0  0  0  0
    4.3651    8.5020    5.5843 H   0  0  0  0  0  0  0  0  0  0  0  0
    3.8614    7.1502    6.6025 H   0  0  0  0  0  0  0  0  0  0  0  0
    2.6873    8.3850    6.1379 H   0  0  0  0  0  0  0  0  0  0  0  0
    1.7297    5.4308    4.0181 H   0  0  0  0  0  0  0  0  0  0  0  0
    1.1529    6.6007    5.2075 H   0  0  0  0  0  0  0  0  0  0  0  0
    2.3189    5.3488    5.6760 H   0  0  0  0  0  0  0  0  0  0  0  0
    5.5937    4.6962   -1.3107 H   0  0  0  0  0  0  0  0  0  0  0  0
    6.4205    4.6010    0.2498 H   0  0  0  0  0  0  0  0  0  0  0  0
    8.9475    8.9609    5.5182 H   0  0  0  0  0  0  0  0  0  0  0  0
    7.3289    8.2353    5.4421 H   0  0  0  0  0  0  0  0  0  0  0  0
    8.1716   10.5830   10.2512 H   0  0  0  0  0  0  0  0  0  0  0  0
    6.5927    9.7943   10.2476 H   0  0  0  0  0  0  0  0  0  0  0  0
    6.2877   10.4028    5.9278 H   0  0  0  0  0  0  0  0  0  0  0  0
    7.8532   11.2107    5.9498 H   0  0  0  0  0  0  0  0  0  0  0  0
    7.4907   11.9832    8.2962 H   0  0  0  0  0  0  0  0  0  0  0  0
    5.8938   11.2318    8.3025 H   0  0  0  0  0  0  0  0  0  0  0  0
    6.9292    9.0003    7.8678 H   0  0  0  0  0  0  0  0  0  0  0  0
    8.5340    9.7304    7.9014 H   0  0  0  0  0  0  0  0  0  0  0  0
    3.9631    4.2489    0.5283 H   0  0  0  0  0  0  0  0  0  0  0  0
    3.6364    5.8113   -0.2233 H   0  0  0  0  0  0  0  0  0  0  0  0
    9.3790    7.5994    0.0431 H   0  0  0  0  0  0  0  0  0  0  0  0
    8.1725    8.3607   -1.0025 H   0  0  0  0  0  0  0  0  0  0  0  0
    1.8499    8.5402    3.7249 H   0  0  0  0  0  0  0  0  0  0  0  0
    2.4799    7.4393    2.4832 H   0  0  0  0  0  0  0  0  0  0  0  0
    8.6383    9.7824    1.0286 H   0  0  0  0  0  0  0  0  0  0  0  0
    6.9719    9.1819    1.0595 H   0  0  0  0  0  0  0  0  0  0  0  0
    5.2738    6.8880    3.8462 H   0  0  0  0  0  0  0  0  0  0  0  0
    7.9073    5.9090    0.5712 H   0  0  0  0  0  0  0  0  0  0  0  0
    4.8442    6.8692    1.6580 H   0  0  0  0  0  0  0  0  0  0  0  0
    5.7071    4.9296    4.8297 H   0  0  0  0  0  0  0  0  0  0  0  0
    4.1348    8.5675    0.3644 H   0  0  0  0  0  0  0  0  0  0  0  0
    2.1120   10.4030    2.1970 H   0  0  0  0  0  0  0  0  0  0  0  0
  1  7  1  0  0  0  0
  1 19  1  0  0  0  0
  1 21  2  0  0  0  0
  2 17  1  0  0  0  0
  2 20  1  0  0  0  0
  2 22  2  0  0  0  0
  3  8  1  0  0  0  0
  3 23  2  0  0  0  0
  3 29  1  0  0  0  0
  4  9  1  0  0  0  0
  4 30  1  0  0  0  0
  4 31  1  0  0  0  0
  4 32  1  0  0  0  0
  5 18  1  0  0  0  0
  5 33  1  0  0  0  0
  5 34  1  0  0  0  0
  5 35  1  0  0  0  0
  6 18  1  0  0  0  0
  6 36  1  0  0  0  0
  6 37  1  0  0  0  0
  6 38  1  0  0  0  0
  7 13  1  0  0  0  0
  7 39  1  0  0  0  0
  7 40  1  0  0  0  0
  8 10  1  0  0  0  0
  8 41  1  0  0  0  0
  8 42  1  0  0  0  0
  9 11  1  0  0  0  0
  9 43  1  0  0  0  0
  9 44  1  0  0  0  0
 10 12  1  0  0  0  0
 10 45  1  0  0  0  0
 10 46  1  0  0  0  0
 11 12  1  0  0  0  0
 11 47  1  0  0  0  0
 11 48  1  0  0  0  0
 12 49  1  0  0  0  0
 12 50  1  0  0  0  0
 13 20  1  0  0  0  0
 13 51  1  0  0  0  0
 13 52  1  0  0  0  0
 14 16  1  0  0  0  0
 14 19  1  0  0  0  0
 14 53  1  0  0  0  0
 14 54  1  0  0  0  0
 15 18  1  0  0  0  0
 15 27  1  0  0  0  0
 15 55  1  0  0  0  0
 15 56  1  0  0  0  0
 16 29  1  0  0  0  0
 16 57  1  0  0  0  0
 16 58  1  0  0  0  0
 17 18  1  0  0  0  0
 17 25  1  0  0  0  0
 17 59  1  6  0  0  0
 19 60  1  0  0  0  0
 20 61  1  0  0  0  0
 24 28  2  0  0  0  0
 25 62  1  0  0  0  0
 26 28  1  0  0  0  0
 26 63  1  0  0  0  0
 27 28  1  0  0  0  0
 28 64  1  1  0  0  0
M  END
$$$$
DrugBank_3930
 OpenBabel01151909533D

 18 18  0  0  0  0  0  0  0  0999 V2000
    1.8851   -1.0363   -0.1124 C   0  0  0  0  0  0  0  0  0  0  0  0
    0.8066   -0.4630    0.5610 C   0  0  0  0  0  0  0  0  0  0  0  0
    2.9210   -1.6309    0.6081 C   0  0  0  0  0  0  0  0  0  0  0  0
    0.7638   -0.4841    1.9551 C   0  0  0  0  0  0  0  0  0  0  0  0
    2.8783   -1.6520    2.0022 C   0  0  0  0  0  0  0  0  0  0  0  0
    1.7997   -1.0786    2.6757 C   0  0  0  0  0  0  0  0  0  0  0  0
    3.9816   -2.2839    2.7478 C   0  0  0  0  0  0  0  0  0  0  0  0
    4.9571   -2.8012    2.0869 O   0  0  0  0  0  0  0  0  0  0  0  0
   -0.4444   -2.3392    4.4658 O   0  0  0  0  0  0  0  0  0  0  0  0
    3.9306   -2.2966    4.0336 O   0  0  0  0  0  0  0  0  0  0  0  0
    0.7304   -0.9921    6.3637 O   0  0  0  0  0  0  0  0  0  0  0  0
    1.7396   -1.0890    4.0371 O   0  0  0  0  0  0  0  0  0  0  0  0
    0.3489   -1.1215    4.9015 P   0  0  1  0  0  0  0  0  0  0  0  0
    1.9189   -1.0192   -1.1980 H   0  0  0  0  0  0  0  0  0  0  0  0
    0.0005    0.0001   -0.0003 H   0  0  0  0  0  0  0  0  0  0  0  0
    3.7569   -2.0739    0.0727 H   0  0  0  0  0  0  0  0  0  0  0  0
   -0.0793   -0.0353    2.4728 H   0  0  0  0  0  0  0  0  0  0  0  0
   -0.2016    0.0831    4.4138 H   0  0  0  0  0  0  0  0  0  0  0  0
  1  2  2  0  0  0  0
  1  3  1  0  0  0  0
  1 14  1  0  0  0  0
  2  4  1  0  0  0  0
  2 15  1  0  0  0  0
  3  5  2  0  0  0  0
  3 16  1  0  0  0  0
  4  6  2  0  0  0  0
  4 17  1  0  0  0  0
  5  6  1  0  0  0  0
  5  7  1  0  0  0  0
  6 12  1  0  0  0  0
  7  8  1  0  0  0  0
  7 10  2  0  0  0  0
  9 13  1  0  0  0  0
 11 13  2  0  0  0  0
 12 13  1  0  0  0  0
 13 18  1  6  0  0  0
M  END
$$$$
DrugBank_6315
 OpenBabel01151909533D

 58 61  0  0  1  0  0  0  0  0999 V2000
    1.9709   -2.7578    0.0350 C   0  0  0  0  0  0  0  0  0  0  0  0
    2.1530    0.0116   -0.0796 C   0  0  0  0  0  0  0  0  0  0  0  0
    3.2362   -2.1504   -0.0488 C   0  0  0  0  0  0  0  0  0  0  0  0
    3.3401   -0.7422   -0.0798 C   0  0  0  0  0  0  0  0  0  0  0  0
    0.9022   -0.6049   -0.0049 C   0  0  0  0  0  0  0  0  0  0  0  0
    0.8107   -1.9893    0.0572 C   0  0  0  0  0  0  0  0  0  0  0  0
    4.4482   -3.0497   -0.0486 C   0  0  0  0  0  0  0  0  0  0  0  0
    5.7447   -2.3454   -0.4369 C   0  0  0  0  0  0  0  0  0  0  0  0
    4.8058    1.3386    0.4402 C   0  0  0  0  0  0  0  0  0  0  0  0
    8.4787   -1.0404    0.4103 C   0  0  0  0  0  0  0  0  0  0  0  0
    9.5214    0.0854    0.5377 C   0  0  0  0  0  0  0  0  0  0  0  0
    6.2095    1.9654    0.3350 C   0  0  0  0  0  0  0  0  0  0  0  0
    4.7037   -0.0685   -0.2078 C   0  0  1  0  0  0  0  0  0  0  0  0
    5.8453   -1.0045    0.2929 C   0  0  2  0  0  0  0  0  0  0  0  0
    7.1861   -0.3085    0.0606 C   0  0  1  0  0  0  0  0  0  0  0  0
    8.7370    1.4099    0.4605 C   0  0  1  0  0  0  0  0  0  0  0  0
    7.2986    1.0140    0.8451 C   0  0  1  0  0  0  0  0  0  0  0  0
    7.1732    0.8700    2.3835 C   0  0  0  0  0  0  0  0  0  0  0  0
   -0.7133    0.5837    1.2731 C   0  0  0  0  0  0  0  0  0  0  0  0
   -2.5576   -3.5911    1.2726 N   0  0  0  0  0  0  0  0  0  0  0  0
   10.9713    4.2639    2.1428 N   0  0  0  0  0  0  0  0  0  0  0  0
   -0.4916   -2.9179    2.6220 O   0  0  0  0  0  0  0  0  0  0  0  0
   -0.3812   -4.9227    1.0919 O   0  0  0  0  0  0  0  0  0  0  0  0
   11.7405    2.2818    0.7021 O   0  0  0  0  0  0  0  0  0  0  0  0
   10.2480    4.0380   -0.3030 O   0  0  0  0  0  0  0  0  0  0  0  0
   -0.2226    0.1641    0.0015 O   0  0  0  0  0  0  0  0  0  0  0  0
   -0.4016   -2.6038    0.1342 O   0  0  0  0  0  0  0  0  0  0  0  0
    9.3083    2.3852    1.3109 O   0  0  0  0  0  0  0  0  0  0  0  0
   -0.8449   -3.5770    1.3776 S   0  0  0  0  0  0  0  0  0  0  0  0
   10.6361    3.2153    0.8283 S   0  0  0  0  0  0  0  0  0  0  0  0
    1.8942   -3.8423    0.0814 H   0  0  0  0  0  0  0  0  0  0  0  0
    2.1827    1.0956   -0.1450 H   0  0  0  0  0  0  0  0  0  0  0  0
    4.5568   -3.4668    0.9609 H   0  0  0  0  0  0  0  0  0  0  0  0
    4.2875   -3.8896   -0.7354 H   0  0  0  0  0  0  0  0  0  0  0  0
    6.5891   -2.9977   -0.1881 H   0  0  0  0  0  0  0  0  0  0  0  0
    5.7732   -2.1861   -1.5225 H   0  0  0  0  0  0  0  0  0  0  0  0
    4.4969    1.2860    1.4911 H   0  0  0  0  0  0  0  0  0  0  0  0
    4.1099    2.0312   -0.0471 H   0  0  0  0  0  0  0  0  0  0  0  0
    8.7643   -1.7609   -0.3628 H   0  0  0  0  0  0  0  0  0  0  0  0
    8.3879   -1.5867    1.3557 H   0  0  0  0  0  0  0  0  0  0  0  0
   10.0827   -0.0087    1.4741 H   0  0  0  0  0  0  0  0  0  0  0  0
   10.2523    0.0337   -0.2772 H   0  0  0  0  0  0  0  0  0  0  0  0
    6.3970    2.2181   -0.7169 H   0  0  0  0  0  0  0  0  0  0  0  0
    6.2315    2.9129    0.8868 H   0  0  0  0  0  0  0  0  0  0  0  0
    4.8464    0.0798   -1.2895 H   0  0  0  0  0  0  0  0  0  0  0  0
    5.7155   -1.2029    1.3648 H   0  0  0  0  0  0  0  0  0  0  0  0
    7.2466   -0.0834   -1.0174 H   0  0  0  0  0  0  0  0  0  0  0  0
    8.7785    1.7918   -0.5676 H   0  0  0  0  0  0  0  0  0  0  0  0
    7.9449    0.1980    2.7324 H   0  0  0  0  0  0  0  0  0  0  0  0
    6.1958    0.4700    2.6151 H   0  0  0  0  0  0  0  0  0  0  0  0
    7.2948    1.8456    2.8335 H   0  0  0  0  0  0  0  0  0  0  0  0
   -1.6126    1.1890    1.1358 H   0  0  0  0  0  0  0  0  0  0  0  0
    0.0556    1.1657    1.7874 H   0  0  0  0  0  0  0  0  0  0  0  0
   -0.9584   -0.2990    1.8685 H   0  0  0  0  0  0  0  0  0  0  0  0
   -3.0172   -2.6810    1.1406 H   0  0  0  0  0  0  0  0  0  0  0  0
   -3.0540   -4.1861    1.9481 H   0  0  0  0  0  0  0  0  0  0  0  0
   10.9560    3.8455    3.0819 H   0  0  0  0  0  0  0  0  0  0  0  0
   11.7481    4.9258    2.0196 H   0  0  0  0  0  0  0  0  0  0  0  0
  1  3  2  0  0  0  0
  1  6  1  0  0  0  0
  1 31  1  0  0  0  0
  2  4  2  0  0  0  0
  2  5  1  0  0  0  0
  2 32  1  0  0  0  0
  3  4  1  0  0  0  0
  3  7  1  0  0  0  0
  4 13  1  0  0  0  0
  5  6  2  0  0  0  0
  5 26  1  0  0  0  0
  6 27  1  0  0  0  0
  7  8  1  0  0  0  0
  7 33  1  0  0  0  0
  7 34  1  0  0  0  0
  8 14  1  0  0  0  0
  8 35  1  0  0  0  0
  8 36  1  0  0  0  0
  9 12  1  0  0  0  0
  9 13  1  0  0  0  0
  9 37  1  0  0  0  0
  9 38  1  0  0  0  0
 10 11  1  0  0  0  0
 10 15  1  0  0  0  0
 10 39  1  0  0  0  0
 10 40  1  0  0  0  0
 11 16  1  0  0  0  0
 11 41  1  0  0  0  0
 11 42  1  0  0  0  0
 12 17  1  0  0  0  0
 12 43  1  0  0  0  0
 12 44  1  0  0  0  0
 13 14  1  1  0  0  0
 13 45  1  0  0  0  0
 14 15  1  6  0  0  0
 14 46  1  0  0  0  0
 15 17  1  1  0  0  0
 15 47  1  0  0  0  0
 16 17  1  1  0  0  0
 16 28  1  0  0  0  0
 16 48  1  0  0  0  0
 17 18  1  1  0  0  0
 18 49  1  0  0  0  0
 18 50  1  0  0  0  0
 18 51  1  0  0  0  0
 19 26  1  0  0  0  0
 19 52  1  0  0  0  0
 19 53  1  0  0  0  0
 19 54  1  0  0  0  0
 20 29  1  0  0  0  0
 20 55  1  0  0  0  0
 20 56  1  0  0  0  0
 21 30  1  0  0  0  0
 21 57  1  0  0  0  0
 21 58  1  0  0  0  0
 22 29  2  0  0  0  0
 23 29  2  0  0  0  0
 24 30  2  0  0  0  0
 25 30  2  0  0  0  0
 27 29  1  0  0  0  0
 28 30  1  0  0  0  0
M  END
$$$$
DrugBank_3937
 OpenBabel01151909533D

 80 83  0  0  1  0  0  0  0  0999 V2000
    4.4994    1.5038   -5.9569 C   0  0  0  0  0  0  0  0  0  0  0  0
   -0.5982   -2.4207   -2.4579 C   0  0  0  0  0  0  0  0  0  0  0  0
    0.3372   -2.6694   -3.6521 C   0  0  0  0  0  0  0  0  0  0  0  0
   -0.0778    2.7346    3.3392 C   0  0  0  0  0  0  0  0  0  0  0  0
    0.4213    2.2218    1.9864 C   0  0  0  0  0  0  0  0  0  0  0  0
   -2.1755    1.3328    3.0939 C   0  0  0  0  0  0  0  0  0  0  0  0
   -2.3440   -0.4532    1.3012 C   0  0  0  0  0  0  0  0  0  0  0  0
    1.7659    0.4606   -0.1673 C   0  0  0  0  0  0  0  0  0  0  0  0
   -0.0401   -1.1678   -1.7930 C   0  0  1  0  0  0  0  0  0  0  0  0
   -1.6831    0.8696    1.7166 C   0  0  2  0  0  0  0  0  0  0  0  0
    0.2427    0.4493    0.1257 C   0  0  1  0  0  0  0  0  0  0  0  0
   -0.4396   -0.8844   -0.3348 C   0  0  1  0  0  0  0  0  0  0  0  0
    1.5703   -1.7459   -3.4710 C   0  0  2  0  0  0  0  0  0  0  0  0
   -1.5993    2.7018    3.4500 C   0  0  1  0  0  0  0  0  0  0  0  0
   -1.9688   -0.8414   -0.1314 C   0  0  2  0  0  0  0  0  0  0  0  0
    2.1164    0.0522   -1.6109 C   0  0  2  0  0  0  0  0  0  0  0  0
   -0.1251    0.8132    1.6151 C   0  0  1  0  0  0  0  0  0  0  0  0
    1.4859   -1.3034   -1.9821 C   0  0  1  0  0  0  0  0  0  0  0  0
    0.4815   -0.2193    2.6011 C   0  0  0  0  0  0  0  0  0  0  0  0
    2.1219   -2.4426   -1.1320 C   0  0  0  0  0  0  0  0  0  0  0  0
    1.0215   -1.1453   -5.8360 C   0  0  0  0  0  0  0  0  0  0  0  0
    3.1339    0.8400   -5.8945 C   0  0  0  0  0  0  0  0  0  0  0  0
    2.9487    0.0067   -4.6260 C   0  0  0  0  0  0  0  0  0  0  0  0
    5.8530    2.9859   -7.4316 C   0  0  0  0  0  0  0  0  0  0  0  0
    5.8217    4.4027   -6.8913 C   0  0  0  0  0  0  0  0  0  0  0  0
    1.5461   -0.6147   -4.5017 C   0  0  2  0  0  0  0  0  0  0  0  0
    4.6479    2.2546   -7.1141 N   0  0  0  0  0  0  0  0  0  0  0  0
    5.3520    1.3721   -5.0831 O   0  0  0  0  0  0  0  0  0  0  0  0
    3.2716    5.0204   -6.8918 O   0  0  0  0  0  0  0  0  0  0  0  0
    4.6024    5.3081   -9.0283 O   0  0  0  0  0  0  0  0  0  0  0  0
   -1.9899    3.0280    4.7797 O   0  0  0  0  0  0  0  0  0  0  0  0
   -2.5788    0.1024   -1.0116 O   0  0  0  0  0  0  0  0  0  0  0  0
    3.5310   -0.0035   -1.7632 O   0  0  0  0  0  0  0  0  0  0  0  0
    5.0110    6.8185   -7.0688 O   0  0  0  0  0  0  0  0  0  0  0  0
    4.5045    5.3551   -7.5808 S   0  0  0  0  0  0  0  0  0  0  0  0
   -1.6321   -2.2838   -2.7904 H   0  0  0  0  0  0  0  0  0  0  0  0
   -0.5859   -3.2786   -1.7763 H   0  0  0  0  0  0  0  0  0  0  0  0
    0.6458   -3.7213   -3.6623 H   0  0  0  0  0  0  0  0  0  0  0  0
   -0.1835   -2.4816   -4.5978 H   0  0  0  0  0  0  0  0  0  0  0  0
    0.3694    2.1563    4.1569 H   0  0  0  0  0  0  0  0  0  0  0  0
    0.2748    3.7620    3.4947 H   0  0  0  0  0  0  0  0  0  0  0  0
    0.1273    2.9425    1.2119 H   0  0  0  0  0  0  0  0  0  0  0  0
    1.5173    2.2180    2.0083 H   0  0  0  0  0  0  0  0  0  0  0  0
   -3.2713    1.3999    3.0972 H   0  0  0  0  0  0  0  0  0  0  0  0
   -1.9349    0.6012    3.8743 H   0  0  0  0  0  0  0  0  0  0  0  0
   -2.0675   -1.2569    1.9927 H   0  0  0  0  0  0  0  0  0  0  0  0
   -3.4338   -0.3389    1.3647 H   0  0  0  0  0  0  0  0  0  0  0  0
    2.1718    1.4657   -0.0001 H   0  0  0  0  0  0  0  0  0  0  0  0
    2.3079   -0.1811    0.5347 H   0  0  0  0  0  0  0  0  0  0  0  0
   -0.3851   -0.3130   -2.3939 H   0  0  0  0  0  0  0  0  0  0  0  0
   -2.0288    1.6344    1.0040 H   0  0  0  0  0  0  0  0  0  0  0  0
   -0.1782    1.2486   -0.5042 H   0  0  0  0  0  0  0  0  0  0  0  0
   -0.0685   -1.7066    0.2861 H   0  0  0  0  0  0  0  0  0  0  0  0
    2.4887   -2.3227   -3.6544 H   0  0  0  0  0  0  0  0  0  0  0  0
   -2.0284    3.4600    2.7837 H   0  0  0  0  0  0  0  0  0  0  0  0
   -2.4082   -1.8213   -0.3499 H   0  0  0  0  0  0  0  0  0  0  0  0
    1.7485    0.8414   -2.2825 H   0  0  0  0  0  0  0  0  0  0  0  0
    0.1053   -1.2005    2.3480 H   0  0  0  0  0  0  0  0  0  0  0  0
    0.1858    0.0480    3.6058 H   0  0  0  0  0  0  0  0  0  0  0  0
    1.5581   -0.1946    2.5076 H   0  0  0  0  0  0  0  0  0  0  0  0
    3.1827   -2.4610   -1.3285 H   0  0  0  0  0  0  0  0  0  0  0  0
    1.6662   -3.3769   -1.4215 H   0  0  0  0  0  0  0  0  0  0  0  0
    1.9325   -2.2347   -0.0901 H   0  0  0  0  0  0  0  0  0  0  0  0
    1.6805   -1.9175   -6.2440 H   0  0  0  0  0  0  0  0  0  0  0  0
    0.9665   -0.3421   -6.5789 H   0  0  0  0  0  0  0  0  0  0  0  0
    0.0194   -1.5734   -5.7270 H   0  0  0  0  0  0  0  0  0  0  0  0
    2.3697    1.6249   -5.9404 H   0  0  0  0  0  0  0  0  0  0  0  0
    3.0312    0.2112   -6.7856 H   0  0  0  0  0  0  0  0  0  0  0  0
    3.7115   -0.7822   -4.5927 H   0  0  0  0  0  0  0  0  0  0  0  0
    3.1315    0.6464   -3.7524 H   0  0  0  0  0  0  0  0  0  0  0  0
    5.9699    2.9733   -8.5197 H   0  0  0  0  0  0  0  0  0  0  0  0
    6.6866    2.4326   -6.9887 H   0  0  0  0  0  0  0  0  0  0  0  0
    6.7462    4.9286   -7.1479 H   0  0  0  0  0  0  0  0  0  0  0  0
    5.6952    4.4205   -5.8046 H   0  0  0  0  0  0  0  0  0  0  0  0
    0.8511    0.1528   -4.1395 H   0  0  0  0  0  0  0  0  0  0  0  0
    3.8894    2.2813   -7.7893 H   0  0  0  0  0  0  0  0  0  0  0  0
   -1.6509    3.9194    4.9579 H   0  0  0  0  0  0  0  0  0  0  0  0
   -3.5341    0.0398   -0.8610 H   0  0  0  0  0  0  0  0  0  0  0  0
    3.8656    0.8851   -1.5657 H   0  0  0  0  0  0  0  0  0  0  0  0
    4.9851    6.9574   -6.0929 H   0  0  0  0  0  0  0  0  0  0  0  0
  1 22  1  0  0  0  0
  1 27  1  0  0  0  0
  1 28  2  0  0  0  0
  2  3  1  0  0  0  0
  2  9  1  0  0  0  0
  2 36  1  0  0  0  0
  2 37  1  0  0  0  0
  3 13  1  0  0  0  0
  3 38  1  0  0  0  0
  3 39  1  0  0  0  0
  4  5  1  0  0  0  0
  4 14  1  0  0  0  0
  4 40  1  0  0  0  0
  4 41  1  0  0  0  0
  5 17  1  0  0  0  0
  5 42  1  0  0  0  0
  5 43  1  0  0  0  0
  6 10  1  0  0  0  0
  6 14  1  0  0  0  0
  6 44  1  0  0  0  0
  6 45  1  0  0  0  0
  7 10  1  0  0  0  0
  7 15  1  0  0  0  0
  7 46  1  0  0  0  0
  7 47  1  0  0  0  0
  8 11  1  0  0  0  0
  8 16  1  0  0  0  0
  8 48  1  0  0  0  0
  8 49  1  0  0  0  0
  9 12  1  1  0  0  0
  9 50  1  0  0  0  0
 10 17  1  6  0  0  0
 10 51  1  0  0  0  0
 11 12  1  6  0  0  0
 11 52  1  0  0  0  0
 12 15  1  1  0  0  0
 12 53  1  0  0  0  0
 13 18  1  1  0  0  0
 13 26  1  0  0  0  0
 13 54  1  0  0  0  0
 14 31  1  0  0  0  0
 14 55  1  6  0  0  0
 15 32  1  0  0  0  0
 15 56  1  6  0  0  0
 16 18  1  6  0  0  0
 16 33  1  0  0  0  0
 16 57  1  0  0  0  0
 17 11  1  6  0  0  0
 17 19  1  0  0  0  0
 18  9  1  1  0  0  0
 18 20  1  0  0  0  0
 19 58  1  0  0  0  0
 19 59  1  0  0  0  0
 19 60  1  0  0  0  0
 20 61  1  0  0  0  0
 20 62  1  0  0  0  0
 20 63  1  0  0  0  0
 21 26  1  0  0  0  0
 21 64  1  0  0  0  0
 21 65  1  0  0  0  0
 21 66  1  0  0  0  0
 22 23  1  0  0  0  0
 22 67  1  0  0  0  0
 22 68  1  0  0  0  0
 23 26  1  0  0  0  0
 23 69  1  0  0  0  0
 23 70  1  0  0  0  0
 24 25  1  0  0  0  0
 24 27  1  0  0  0  0
 24 71  1  0  0  0  0
 24 72  1  0  0  0  0
 25 35  1  0  0  0  0
 25 73  1  0  0  0  0
 25 74  1  0  0  0  0
 26 75  1  1  0  0  0
 27 76  1  0  0  0  0
 29 35  2  0  0  0  0
 30 35  2  0  0  0  0
 31 77  1  0  0  0  0
 32 78  1  0  0  0  0
 33 79  1  0  0  0  0
 34 35  1  0  0  0  0
 34 80  1  0  0  0  0
M  END
$$$$
DrugBank_6316
 OpenBabel01151909533D

 60 64  0  0  1  0  0  0  0  0999 V2000
   -6.1083    9.0581    5.6106 C   0  0  0  0  0  0  0  0  0  0  0  0
   -0.5170    1.4134    1.5422 C   0  0  0  0  0  0  0  0  0  0  0  0
   -5.7390    7.9748    6.4001 C   0  0  0  0  0  0  0  0  0  0  0  0
    0.3752    0.7222    0.7193 C   0  0  0  0  0  0  0  0  0  0  0  0
    2.2081    1.9048    1.7261 C   0  0  0  0  0  0  0  0  0  0  0  0
   -5.1941   10.0873    5.4529 C   0  0  0  0  0  0  0  0  0  0  0  0
   -3.6429    9.0326    6.7794 C   0  0  0  0  0  0  0  0  0  0  0  0
   -0.0647    2.3481    2.4918 C   0  0  0  0  0  0  0  0  0  0  0  0
    1.3180    2.6147    2.5515 C   0  0  0  0  0  0  0  0  0  0  0  0
   -4.4845    7.9541    6.9994 C   0  0  0  0  0  0  0  0  0  0  0  0
    1.7392    0.9623    0.8161 C   0  0  0  0  0  0  0  0  0  0  0  0
   -1.7446    6.2201    7.3588 C   0  0  0  0  0  0  0  0  0  0  0  0
   -3.6399    4.8600    6.4193 C   0  0  0  0  0  0  0  0  0  0  0  0
    1.8963    3.6181    3.5130 C   0  0  0  0  0  0  0  0  0  0  0  0
   -0.7549    5.4187    6.5426 C   0  0  0  0  0  0  0  0  0  0  0  0
    0.8612    4.5798    4.0880 C   0  0  0  0  0  0  0  0  0  0  0  0
   -2.2507    2.2944    3.8482 C   0  0  0  0  0  0  0  0  0  0  0  0
   -3.2423    3.1433    4.6412 C   0  0  0  0  0  0  0  0  0  0  0  0
   -1.0501    3.1257    3.3613 C   0  0  1  0  0  0  0  0  0  0  0  0
   -1.3832    4.6897    5.3569 C   0  0  1  0  0  0  0  0  0  0  0  0
   -0.3667    3.8025    4.5834 C   0  0  2  0  0  0  0  0  0  0  0  0
   -2.6095    3.8809    5.8413 C   0  0  1  0  0  0  0  0  0  0  0  0
   -2.2916    2.8625    6.9581 C   0  0  0  0  0  0  0  0  0  0  0  0
   -4.0559    6.7986    7.8569 C   0  0  0  0  0  0  0  0  0  0  0  0
   -3.9666   10.1025    6.0190 N   0  0  0  0  0  0  0  0  0  0  0  0
   -3.1062    5.9299    7.1682 N   0  0  0  0  0  0  0  0  0  0  0  0
    3.9101   -1.7814   -0.9582 N   0  0  0  0  0  0  0  0  0  0  0  0
   -1.3233    7.0557    8.1638 O   0  0  0  0  0  0  0  0  0  0  0  0
   -4.8496    4.6585    6.2843 O   0  0  0  0  0  0  0  0  0  0  0  0
    1.5700   -1.1366   -1.7649 O   0  0  0  0  0  0  0  0  0  0  0  0
    1.8760   -2.0472    0.5695 O   0  0  0  0  0  0  0  0  0  0  0  0
    2.6112    0.2881    0.0194 O   0  0  0  0  0  0  0  0  0  0  0  0
    2.3400   -1.2311   -0.5378 S   0  0  0  0  0  0  0  0  0  0  0  0
   -7.0809    9.0955    5.1334 H   0  0  0  0  0  0  0  0  0  0  0  0
   -1.5759    1.2101    1.4144 H   0  0  0  0  0  0  0  0  0  0  0  0
   -6.4343    7.1520    6.5425 H   0  0  0  0  0  0  0  0  0  0  0  0
   -0.0064    0.0008    0.0017 H   0  0  0  0  0  0  0  0  0  0  0  0
    3.2772    2.0962    1.7931 H   0  0  0  0  0  0  0  0  0  0  0  0
   -5.4345   10.9548    4.8471 H   0  0  0  0  0  0  0  0  0  0  0  0
   -2.6519    9.0723    7.2209 H   0  0  0  0  0  0  0  0  0  0  0  0
    2.3729    3.0669    4.3337 H   0  0  0  0  0  0  0  0  0  0  0  0
    2.6771    4.2049    3.0139 H   0  0  0  0  0  0  0  0  0  0  0  0
   -0.0135    6.1414    6.1843 H   0  0  0  0  0  0  0  0  0  0  0  0
   -0.2378    4.7247    7.2143 H   0  0  0  0  0  0  0  0  0  0  0  0
    1.3442    5.1371    4.8959 H   0  0  0  0  0  0  0  0  0  0  0  0
    0.5596    5.3113    3.3274 H   0  0  0  0  0  0  0  0  0  0  0  0
   -1.9046    1.4464    4.4517 H   0  0  0  0  0  0  0  0  0  0  0  0
   -2.8019    1.8660    3.0045 H   0  0  0  0  0  0  0  0  0  0  0  0
   -3.6940    3.8763    3.9580 H   0  0  0  0  0  0  0  0  0  0  0  0
   -4.0679    2.5018    4.9763 H   0  0  0  0  0  0  0  0  0  0  0  0
   -1.4417    3.9230    2.7113 H   0  0  0  0  0  0  0  0  0  0  0  0
   -1.7428    5.4625    4.6594 H   0  0  0  0  0  0  0  0  0  0  0  0
   -0.0018    3.0209    5.2644 H   0  0  0  0  0  0  0  0  0  0  0  0
   -1.5642    2.1502    6.5884 H   0  0  0  0  0  0  0  0  0  0  0  0
   -3.2037    2.3490    7.2363 H   0  0  0  0  0  0  0  0  0  0  0  0
   -1.8894    3.3919    7.8132 H   0  0  0  0  0  0  0  0  0  0  0  0
   -3.5804    7.1560    8.7768 H   0  0  0  0  0  0  0  0  0  0  0  0
   -4.9157    6.1877    8.1515 H   0  0  0  0  0  0  0  0  0  0  0  0
    4.4954   -1.1310   -1.4981 H   0  0  0  0  0  0  0  0  0  0  0  0
    3.9814   -2.7482   -1.2999 H   0  0  0  0  0  0  0  0  0  0  0  0
  1  3  2  0  0  0  0
  1  6  1  0  0  0  0
  1 34  1  0  0  0  0
  2  4  2  0  0  0  0
  2  8  1  0  0  0  0
  2 35  1  0  0  0  0
  3 10  1  0  0  0  0
  3 36  1  0  0  0  0
  4 11  1  0  0  0  0
  4 37  1  0  0  0  0
  5  9  1  0  0  0  0
  5 11  2  0  0  0  0
  5 38  1  0  0  0  0
  6 25  2  0  0  0  0
  6 39  1  0  0  0  0
  7 10  2  0  0  0  0
  7 25  1  0  0  0  0
  7 40  1  0  0  0  0
  8  9  2  0  0  0  0
  8 19  1  0  0  0  0
  9 14  1  0  0  0  0
 10 24  1  0  0  0  0
 11 32  1  0  0  0  0
 12 15  1  0  0  0  0
 12 26  1  0  0  0  0
 12 28  2  0  0  0  0
 13 22  1  0  0  0  0
 13 26  1  0  0  0  0
 13 29  2  0  0  0  0
 14 16  1  0  0  0  0
 14 41  1  0  0  0  0
 14 42  1  0  0  0  0
 15 20  1  0  0  0  0
 15 43  1  0  0  0  0
 15 44  1  0  0  0  0
 16 21  1  0  0  0  0
 16 45  1  0  0  0  0
 16 46  1  0  0  0  0
 17 18  1  0  0  0  0
 17 19  1  0  0  0  0
 17 47  1  0  0  0  0
 17 48  1  0  0  0  0
 18 22  1  0  0  0  0
 18 49  1  0  0  0  0
 18 50  1  0  0  0  0
 19 21  1  1  0  0  0
 19 51  1  0  0  0  0
 20 21  1  6  0  0  0
 20 52  1  0  0  0  0
 21 53  1  1  0  0  0
 22 20  1  6  0  0  0
 22 23  1  0  0  0  0
 23 54  1  0  0  0  0
 23 55  1  0  0  0  0
 23 56  1  0  0  0  0
 24 26  1  0  0  0  0
 24 57  1  0  0  0  0
 24 58  1  0  0  0  0
 27 33  1  0  0  0  0
 27 59  1  0  0  0  0
 27 60  1  0  0  0  0
 30 33  2  0  0  0  0
 31 33  2  0  0  0  0
 32 33  1  0  0  0  0
M  END
$$$$
DrugBank_3945
 OpenBabel01151909533D

 10  9  0  0  0  0  0  0  0  0999 V2000
    0.3324   -0.6633   -0.7914 C   0  0  0  0  0  0  0  0  0  0  0  0
    0.5022   -1.9728   -0.5993 C   0  0  0  0  0  0  0  0  0  0  0  0
   -1.2121   -2.3384    1.3159 O   0  0  0  0  0  0  0  0  0  0  0  0
    1.2456   -2.2199    1.8747 O   0  0  0  0  0  0  0  0  0  0  0  0
    0.3216   -4.1920    0.6553 O   0  0  0  0  0  0  0  0  0  0  0  0
    0.1750   -2.5970    0.9674 S   0  0  0  0  0  0  0  0  0  0  0  0
    0.5277   -0.2264   -1.7649 H   0  0  0  0  0  0  0  0  0  0  0  0
    0.0000    0.0000    0.0000 H   0  0  0  0  0  0  0  0  0  0  0  0
    0.8343   -2.6327   -1.3908 H   0  0  0  0  0  0  0  0  0  0  0  0
   -0.3551   -4.5691    0.0451 H   0  0  0  0  0  0  0  0  0  0  0  0
  1  2  2  0  0  0  0
  1  7  1  0  0  0  0
  1  8  1  0  0  0  0
  2  6  1  0  0  0  0
  2  9  1  0  0  0  0
  3  6  2  0  0  0  0
  4  6  2  0  0  0  0
  5  6  1  0  0  0  0
  5 10  1  0  0  0  0
M  END
$$$$
DrugBank_6329
 OpenBabel01151909533D

 27 26  0  0  1  0  0  0  0  0999 V2000
   -1.9719   -2.0576    1.7314 C   0  0  0  0  0  0  0  0  0  0  0  0
   -1.0900    1.5256   -1.7947 C   0  0  0  0  0  0  0  0  0  0  0  0
   -3.5825   -0.1774    1.6810 C   0  0  0  0  0  0  0  0  0  0  0  0
   -1.6328   -2.3807    3.1673 C   0  0  0  0  0  0  0  0  0  0  0  0
   -1.4507    1.2318   -0.3481 C   0  0  0  0  0  0  0  0  0  0  0  0
   -2.1363   -0.5772    1.3862 C   0  0  2  0  0  0  0  0  0  0  0  0
   -1.7327   -0.2512   -0.0664 C   0  0  1  0  0  0  0  0  0  0  0  0
   -2.1386   -2.9477    0.8982 O   0  0  0  0  0  0  0  0  0  0  0  0
   -0.0946   -4.6023    2.9673 O   0  0  0  0  0  0  0  0  0  0  0  0
   -2.7566   -0.7001   -0.9558 O   0  0  0  0  0  0  0  0  0  0  0  0
   -1.4313   -4.1220    5.1202 O   0  0  0  0  0  0  0  0  0  0  0  0
   -1.4299   -4.1430    3.4935 P   0  0  1  0  0  0  0  0  0  0  0  0
   -0.2394    0.9243   -2.1275 H   0  0  0  0  0  0  0  0  0  0  0  0
   -0.8431    2.5832   -1.9312 H   0  0  0  0  0  0  0  0  0  0  0  0
   -1.9363    1.2890   -2.4477 H   0  0  0  0  0  0  0  0  0  0  0  0
   -4.2760   -0.7246    1.0331 H   0  0  0  0  0  0  0  0  0  0  0  0
   -3.7521    0.8907    1.5063 H   0  0  0  0  0  0  0  0  0  0  0  0
   -3.8451   -0.4022    2.7198 H   0  0  0  0  0  0  0  0  0  0  0  0
   -2.4327   -2.0022    3.8099 H   0  0  0  0  0  0  0  0  0  0  0  0
   -0.6974   -1.8762    3.4261 H   0  0  0  0  0  0  0  0  0  0  0  0
   -2.3050    1.8492   -0.0460 H   0  0  0  0  0  0  0  0  0  0  0  0
   -0.6222    1.5584    0.2937 H   0  0  0  0  0  0  0  0  0  0  0  0
   -1.4844   -0.0049    2.0571 H   0  0  0  0  0  0  0  0  0  0  0  0
   -0.8329   -0.8299   -0.3110 H   0  0  0  0  0  0  0  0  0  0  0  0
   -2.9066   -1.6347   -0.7496 H   0  0  0  0  0  0  0  0  0  0  0  0
   -1.2632   -4.9612    5.5995 H   0  0  0  0  0  0  0  0  0  0  0  0
   -2.5985   -4.8772    3.2053 H   0  0  0  0  0  0  0  0  0  0  0  0
  1  4  1  0  0  0  0
  1  6  1  0  0  0  0
  1  8  2  0  0  0  0
  2  5  1  0  0  0  0
  2 13  1  0  0  0  0
  2 14  1  0  0  0  0
  2 15  1  0  0  0  0
  3  6  1  0  0  0  0
  3 16  1  0  0  0  0
  3 17  1  0  0  0  0
  3 18  1  0  0  0  0
  4 12  1  0  0  0  0
  4 19  1  0  0  0  0
  4 20  1  0  0  0  0
  5  7  1  0  0  0  0
  5 21  1  0  0  0  0
  5 22  1  0  0  0  0
  6  7  1  0  0  0  0
  6 23  1  1  0  0  0
  7 10  1  0  0  0  0
  7 24  1  6  0  0  0
  9 12  2  0  0  0  0
 10 25  1  0  0  0  0
 11 12  1  0  0  0  0
 11 26  1  0  0  0  0
 12 27  1  6  0  0  0
M  END
$$$$
DrugBank_3954
 OpenBabel01151909533D

 18 17  0  0  1  0  0  0  0  0999 V2000
    1.4996   -0.7940   -2.2308 C   0  0  0  0  0  0  0  0  0  0  0  0
    1.0762   -0.1070    0.1717 C   0  0  0  0  0  0  0  0  0  0  0  0
    1.6646   -1.1642   -0.7661 C   0  0  2  0  0  0  0  0  0  0  0  0
    3.0346   -1.4721   -0.4398 N   0  0  0  0  0  0  0  0  0  0  0  0
    2.4362   -0.6638   -3.0097 O   0  0  0  0  0  0  0  0  0  0  0  0
   -0.6002    2.7397    0.9665 O   0  0  0  0  0  0  0  0  0  0  0  0
    1.1210    2.1482    2.7127 O   0  0  0  0  0  0  0  0  0  0  0  0
    0.2083   -0.6049   -2.5932 O   0  0  0  0  0  0  0  0  0  0  0  0
    1.4244    4.1617    1.2744 O   0  0  0  0  0  0  0  0  0  0  0  0
    1.8318    1.5423   -0.0141 S   0  0  0  0  0  0  0  0  0  0  0  0
    0.7812    2.6694    1.4027 S   0  0  0  0  0  0  0  0  0  0  0  0
    1.2172   -0.4143    1.2135 H   0  0  0  0  0  0  0  0  0  0  0  0
    0.0000    0.0000    0.0000 H   0  0  0  0  0  0  0  0  0  0  0  0
    1.1173   -2.1042   -0.6269 H   0  0  0  0  0  0  0  0  0  0  0  0
    3.6227   -1.8850   -1.1437 H   0  0  0  0  0  0  0  0  0  0  0  0
    3.3203   -1.4621    0.5247 H   0  0  0  0  0  0  0  0  0  0  0  0
   -0.4080   -0.7512   -1.8442 H   0  0  0  0  0  0  0  0  0  0  0  0
    2.4053    4.2074    1.3639 H   0  0  0  0  0  0  0  0  0  0  0  0
  1  3  1  0  0  0  0
  1  5  2  0  0  0  0
  1  8  1  0  0  0  0
  2  3  1  0  0  0  0
  2 10  1  0  0  0  0
  2 12  1  0  0  0  0
  2 13  1  0  0  0  0
  3  4  1  0  0  0  0
  3 14  1  1  0  0  0
  4 15  1  0  0  0  0
  4 16  1  0  0  0  0
  6 11  2  0  0  0  0
  7 11  2  0  0  0  0
  8 17  1  0  0  0  0
  9 11  1  0  0  0  0
  9 18  1  0  0  0  0
 10 11  1  0  0  0  0
M  END
$$$$
DrugBank_1313
 OpenBabel01151909533D

 40 42  0  0  0  0  0  0  0  0999 V2000
   -1.3535    2.6795    6.4227 C   0  0  0  0  0  0  0  0  0  0  0  0
   -1.7792    2.1122    5.1869 C   0  0  0  0  0  0  0  0  0  0  0  0
   -1.1226    4.0335    6.3182 C   0  0  0  0  0  0  0  0  0  0  0  0
   -1.8576    3.0544    4.1850 C   0  0  0  0  0  0  0  0  0  0  0  0
   -5.2445    3.2837    2.3746 C   0  0  0  0  0  0  0  0  0  0  0  0
   -4.6884    2.0480    3.0707 C   0  0  0  0  0  0  0  0  0  0  0  0
   -4.2909    4.4667    2.4858 C   0  0  0  0  0  0  0  0  0  0  0  0
    1.8099    1.9288    1.7842 C   0  0  0  0  0  0  0  0  0  0  0  0
    1.2182    3.2637    1.3461 C   0  0  0  0  0  0  0  0  0  0  0  0
    0.7523    0.8326    1.7265 C   0  0  0  0  0  0  0  0  0  0  0  0
   -3.2978    1.6978    2.5426 C   0  0  0  0  0  0  0  0  0  0  0  0
   -2.8760    4.1103    2.0186 C   0  0  0  0  0  0  0  0  0  0  0  0
   -0.0573    3.5894    2.1246 C   0  0  0  0  0  0  0  0  0  0  0  0
   -0.5085    1.2353    2.4932 C   0  0  0  0  0  0  0  0  0  0  0  0
   -2.2769    2.8571    2.7077 C   0  0  0  0  0  0  0  0  0  0  0  0
   -1.0464    2.5099    1.9972 N   0  0  0  0  0  0  0  0  0  0  0  0
   -1.4189    4.6155    4.7353 S   0  0  0  0  0  0  0  0  0  0  0  0
   -1.2238    2.1236    7.3421 H   0  0  0  0  0  0  0  0  0  0  0  0
   -2.0162    1.0653    5.0456 H   0  0  0  0  0  0  0  0  0  0  0  0
   -0.7938    4.7087    7.0956 H   0  0  0  0  0  0  0  0  0  0  0  0
   -5.4347    3.0592    1.3185 H   0  0  0  0  0  0  0  0  0  0  0  0
   -6.2107    3.5501    2.8219 H   0  0  0  0  0  0  0  0  0  0  0  0
   -4.6316    2.2329    4.1463 H   0  0  0  0  0  0  0  0  0  0  0  0
   -5.3704    1.2062    2.9297 H   0  0  0  0  0  0  0  0  0  0  0  0
   -4.6793    5.3146    1.9046 H   0  0  0  0  0  0  0  0  0  0  0  0
   -4.2516    4.8038    3.5308 H   0  0  0  0  0  0  0  0  0  0  0  0
    2.6465    1.6655    1.1253 H   0  0  0  0  0  0  0  0  0  0  0  0
    2.2123    2.0107    2.7999 H   0  0  0  0  0  0  0  0  0  0  0  0
    1.9570    4.0604    1.5015 H   0  0  0  0  0  0  0  0  0  0  0  0
    0.9997    3.2364    0.2724 H   0  0  0  0  0  0  0  0  0  0  0  0
    0.4979    0.6192    0.6822 H   0  0  0  0  0  0  0  0  0  0  0  0
    1.1606   -0.0930    2.1518 H   0  0  0  0  0  0  0  0  0  0  0  0
   -2.9345    0.8113    3.0786 H   0  0  0  0  0  0  0  0  0  0  0  0
   -3.3742    1.4039    1.4888 H   0  0  0  0  0  0  0  0  0  0  0  0
   -2.8838    3.9772    0.9240 H   0  0  0  0  0  0  0  0  0  0  0  0
   -2.2202    4.9793    2.1988 H   0  0  0  0  0  0  0  0  0  0  0  0
    0.2118    3.7238    3.1797 H   0  0  0  0  0  0  0  0  0  0  0  0
   -0.4713    4.5432    1.7702 H   0  0  0  0  0  0  0  0  0  0  0  0
   -1.2584    0.4367    2.4135 H   0  0  0  0  0  0  0  0  0  0  0  0
   -0.2467    1.3306    3.5544 H   0  0  0  0  0  0  0  0  0  0  0  0
  1  2  1  0  0  0  0
  1  3  2  0  0  0  0
  1 18  1  0  0  0  0
  2  4  2  0  0  0  0
  2 19  1  0  0  0  0
  3 17  1  0  0  0  0
  3 20  1  0  0  0  0
  4 15  1  0  0  0  0
  4 17  1  0  0  0  0
  5  6  1  0  0  0  0
  5  7  1  0  0  0  0
  5 21  1  0  0  0  0
  5 22  1  0  0  0  0
  6 11  1  0  0  0  0
  6 23  1  0  0  0  0
  6 24  1  0  0  0  0
  7 12  1  0  0  0  0
  7 25  1  0  0  0  0
  7 26  1  0  0  0  0
  8  9  1  0  0  0  0
  8 10  1  0  0  0  0
  8 27  1  0  0  0  0
  8 28  1  0  0  0  0
  9 13  1  0  0  0  0
  9 29  1  0  0  0  0
  9 30  1  0  0  0  0
 10 14  1  0  0  0  0
 10 31  1  0  0  0  0
 10 32  1  0  0  0  0
 11 15  1  0  0  0  0
 11 33  1  0  0  0  0
 11 34  1  0  0  0  0
 12 15  1  0  0  0  0
 12 35  1  0  0  0  0
 12 36  1  0  0  0  0
 13 16  1  0  0  0  0
 13 37  1  0  0  0  0
 13 38  1  0  0  0  0
 14 16  1  0  0  0  0
 14 39  1  0  0  0  0
 14 40  1  0  0  0  0
 15 16  1  0  0  0  0
M  END
$$$$
DrugBank_6331
 OpenBabel01151909533D

 20 20  0  0  0  0  0  0  0  0999 V2000
    1.8851   -1.0363   -0.1124 C   0  0  0  0  0  0  0  0  0  0  0  0
    0.8066   -0.4630    0.5610 C   0  0  0  0  0  0  0  0  0  0  0  0
    2.9210   -1.6309    0.6081 C   0  0  0  0  0  0  0  0  0  0  0  0
    0.7638   -0.4841    1.9551 C   0  0  0  0  0  0  0  0  0  0  0  0
    2.8783   -1.6520    2.0022 C   0  0  0  0  0  0  0  0  0  0  0  0
    1.7997   -1.0786    2.6757 C   0  0  0  0  0  0  0  0  0  0  0  0
    0.1224   -2.0387    7.3540 C   0  0  0  0  0  0  0  0  0  0  0  0
    0.9956   -1.7298    6.3934 C   0  0  0  0  0  0  0  0  0  0  0  0
   -0.5058   -2.1507    4.3316 O   0  0  0  0  0  0  0  0  0  0  0  0
   -0.0975    0.2248    5.0959 O   0  0  0  0  0  0  0  0  0  0  0  0
    1.7593   -1.0981    4.0359 O   0  0  0  0  0  0  0  0  0  0  0  0
    0.3641   -1.1361    4.8963 S   0  0  0  0  0  0  0  0  0  0  0  0
    1.9184   -1.0206   -1.1979 H   0  0  0  0  0  0  0  0  0  0  0  0
   -0.0001    0.0001    0.0001 H   0  0  0  0  0  0  0  0  0  0  0  0
    3.7605   -2.0773    0.0830 H   0  0  0  0  0  0  0  0  0  0  0  0
   -0.0785   -0.0345    2.4737 H   0  0  0  0  0  0  0  0  0  0  0  0
    3.6889   -2.1149    2.5584 H   0  0  0  0  0  0  0  0  0  0  0  0
    0.4744   -2.4147    8.3087 H   0  0  0  0  0  0  0  0  0  0  0  0
   -0.9485   -1.9282    7.2209 H   0  0  0  0  0  0  0  0  0  0  0  0
    2.0640   -1.8412    6.5286 H   0  0  0  0  0  0  0  0  0  0  0  0
  1  2  2  0  0  0  0
  1  3  1  0  0  0  0
  1 13  1  0  0  0  0
  2  4  1  0  0  0  0
  2 14  1  0  0  0  0
  3  5  2  0  0  0  0
  3 15  1  0  0  0  0
  4  6  2  0  0  0  0
  4 16  1  0  0  0  0
  5  6  1  0  0  0  0
  5 17  1  0  0  0  0
  6 11  1  0  0  0  0
  7  8  2  0  0  0  0
  7 18  1  0  0  0  0
  7 19  1  0  0  0  0
  8 12  1  0  0  0  0
  8 20  1  0  0  0  0
  9 12  2  0  0  0  0
 10 12  2  0  0  0  0
 11 12  1  0  0  0  0
M  END
$$$$
DrugBank_6342
 OpenBabel01151909533D

 41 44  0  0  0  0  0  0  0  0999 V2000
    9.1576   -8.5315    7.8149 C   0  0  0  0  0  0  0  0  0  0  0  0
    4.6423   -4.8568    3.4186 C   0  0  0  0  0  0  0  0  0  0  0  0
    5.8182   -5.4155    3.9191 C   0  0  0  0  0  0  0  0  0  0  0  0
    1.3970   -6.2581   -0.6393 C   0  0  0  0  0  0  0  0  0  0  0  0
    7.4581   -9.5946    6.4135 C   0  0  0  0  0  0  0  0  0  0  0  0
    8.5017   -7.5442    5.6761 C   0  0  0  0  0  0  0  0  0  0  0  0
    6.8212   -8.6060    4.3029 C   0  0  0  0  0  0  0  0  0  0  0  0
    5.2758   -5.5246    1.1848 C   0  0  0  0  0  0  0  0  0  0  0  0
    0.4391   -7.1341   -1.1304 C   0  0  0  0  0  0  0  0  0  0  0  0
    8.3661   -8.5572    6.6254 C   0  0  0  0  0  0  0  0  0  0  0  0
    1.2473   -5.9356    0.7065 C   0  0  0  0  0  0  0  0  0  0  0  0
    4.3710   -4.9114    2.0514 C   0  0  0  0  0  0  0  0  0  0  0  0
    6.6857   -9.6190    5.2522 C   0  0  0  0  0  0  0  0  0  0  0  0
    6.7230   -6.0287    3.0525 C   0  0  0  0  0  0  0  0  0  0  0  0
    7.7293   -7.5686    4.5149 C   0  0  0  0  0  0  0  0  0  0  0  0
    6.4518   -6.0833    1.6853 C   0  0  0  0  0  0  0  0  0  0  0  0
    1.8887   -5.1416    1.6775 C   0  0  0  0  0  0  0  0  0  0  0  0
    0.1899   -6.5076    1.3877 C   0  0  0  0  0  0  0  0  0  0  0  0
    5.7145  -10.7279    5.0254 C   0  0  0  0  0  0  0  0  0  0  0  0
    3.0870   -4.3009    1.5061 C   0  0  0  0  0  0  0  0  0  0  0  0
    9.8004   -8.5105    8.7809 N   0  0  0  0  0  0  0  0  0  0  0  0
   -0.5801   -7.6624   -0.4031 N   0  0  0  0  0  0  0  0  0  0  0  0
    1.2922   -5.2027    2.8734 N   0  0  0  0  0  0  0  0  0  0  0  0
   -0.7192   -7.3530    0.8779 N   0  0  0  0  0  0  0  0  0  0  0  0
    0.2607   -6.0423    2.6656 N   0  0  0  0  0  0  0  0  0  0  0  0
    7.8637   -6.5637    3.5731 O   0  0  0  0  0  0  0  0  0  0  0  0
    7.6592   -6.9071    0.4786 Br  0  0  0  0  0  0  0  0  0  0  0  0
    3.9437   -4.3812    4.1021 H   0  0  0  0  0  0  0  0  0  0  0  0
    6.0227   -5.3692    4.9855 H   0  0  0  0  0  0  0  0  0  0  0  0
    2.1906   -5.8648   -1.2618 H   0  0  0  0  0  0  0  0  0  0  0  0
    7.3478  -10.3875    7.1504 H   0  0  0  0  0  0  0  0  0  0  0  0
    9.2073   -6.7311    5.8330 H   0  0  0  0  0  0  0  0  0  0  0  0
    6.2206   -8.6220    3.3967 H   0  0  0  0  0  0  0  0  0  0  0  0
    5.0557   -5.5629    0.1200 H   0  0  0  0  0  0  0  0  0  0  0  0
    0.4662   -7.4510   -2.1683 H   0  0  0  0  0  0  0  0  0  0  0  0
    4.7339  -10.4682    5.4427 H   0  0  0  0  0  0  0  0  0  0  0  0
    5.5925  -10.9381    3.9549 H   0  0  0  0  0  0  0  0  0  0  0  0
    6.0568  -11.6595    5.4948 H   0  0  0  0  0  0  0  0  0  0  0  0
    2.9531   -3.3047    1.9783 H   0  0  0  0  0  0  0  0  0  0  0  0
    3.2537   -4.0475    0.4378 H   0  0  0  0  0  0  0  0  0  0  0  0
   -0.3547   -6.2510    3.4417 H   0  0  0  0  0  0  0  0  0  0  0  0
  1 10  1  0  0  0  0
  1 21  3  0  0  0  0
  2  3  2  0  0  0  0
  2 12  1  0  0  0  0
  2 28  1  0  0  0  0
  3 14  1  0  0  0  0
  3 29  1  0  0  0  0
  4  9  2  0  0  0  0
  4 11  1  0  0  0  0
  4 30  1  0  0  0  0
  5 10  2  0  0  0  0
  5 13  1  0  0  0  0
  5 31  1  0  0  0  0
  6 10  1  0  0  0  0
  6 15  2  0  0  0  0
  6 32  1  0  0  0  0
  7 13  2  0  0  0  0
  7 15  1  0  0  0  0
  7 33  1  0  0  0  0
  8 12  2  0  0  0  0
  8 16  1  0  0  0  0
  8 34  1  0  0  0  0
  9 22  1  0  0  0  0
  9 35  1  0  0  0  0
 11 17  1  0  0  0  0
 11 18  2  0  0  0  0
 12 20  1  0  0  0  0
 13 19  1  0  0  0  0
 14 16  2  0  0  0  0
 14 26  1  0  0  0  0
 15 26  1  0  0  0  0
 16 27  1  0  0  0  0
 17 20  1  0  0  0  0
 17 23  2  0  0  0  0
 18 24  1  0  0  0  0
 18 25  1  0  0  0  0
 19 36  1  0  0  0  0
 19 37  1  0  0  0  0
 19 38  1  0  0  0  0
 20 39  1  0  0  0  0
 20 40  1  0  0  0  0
 22 24  2  0  0  0  0
 23 25  1  0  0  0  0
 25 41  1  0  0  0  0
M  END
$$$$
DrugBank_6344
 OpenBabel01151909533D

 38 41  0  0  0  0  0  0  0  0999 V2000
    6.9361   -8.9966   -3.4239 C   0  0  0  0  0  0  0  0  0  0  0  0
    4.6399   -4.8553    3.4190 C   0  0  0  0  0  0  0  0  0  0  0  0
    5.8149   -5.4136    3.9222 C   0  0  0  0  0  0  0  0  0  0  0  0
    1.6838   -6.0025   -1.0286 C   0  0  0  0  0  0  0  0  0  0  0  0
    7.1255   -7.8321   -1.2820 C   0  0  0  0  0  0  0  0  0  0  0  0
    5.9082   -9.9154   -1.4042 C   0  0  0  0  0  0  0  0  0  0  0  0
    6.1044   -8.7529    0.7046 C   0  0  0  0  0  0  0  0  0  0  0  0
    0.8239   -6.8477   -1.7160 C   0  0  0  0  0  0  0  0  0  0  0  0
    6.6544   -8.9140   -2.0256 C   0  0  0  0  0  0  0  0  0  0  0  0
    1.4227   -5.8990    0.3347 C   0  0  0  0  0  0  0  0  0  0  0  0
    4.3710   -4.9114    2.0514 C   0  0  0  0  0  0  0  0  0  0  0  0
    6.8506   -7.7516    0.0832 C   0  0  0  0  0  0  0  0  0  0  0  0
    6.4522   -6.0840    1.6903 C   0  0  0  0  0  0  0  0  0  0  0  0
    5.2772   -5.5257    1.1871 C   0  0  0  0  0  0  0  0  0  0  0  0
    5.6332   -9.8348   -0.0391 C   0  0  0  0  0  0  0  0  0  0  0  0
    6.7211   -6.0279    3.0579 C   0  0  0  0  0  0  0  0  0  0  0  0
    1.9412   -5.2266    1.4588 C   0  0  0  0  0  0  0  0  0  0  0  0
    0.3644   -6.6292    0.8407 C   0  0  0  0  0  0  0  0  0  0  0  0
    3.0870   -4.3009    1.5061 C   0  0  0  0  0  0  0  0  0  0  0  0
    7.1650   -9.0637   -4.5597 N   0  0  0  0  0  0  0  0  0  0  0  0
   -0.2024   -7.5397   -1.1551 N   0  0  0  0  0  0  0  0  0  0  0  0
    1.2718   -5.5046    2.5833 N   0  0  0  0  0  0  0  0  0  0  0  0
   -0.4478   -7.4385    0.1431 N   0  0  0  0  0  0  0  0  0  0  0  0
    0.3173   -6.3614    2.1750 N   0  0  0  0  0  0  0  0  0  0  0  0
    7.3181   -6.6783    0.8210 O   0  0  0  0  0  0  0  0  0  0  0  0
    5.0198   -5.5811   -0.1280 F   0  0  0  0  0  0  0  0  0  0  0  0
    4.7124  -11.0696    0.7280 Cl  0  0  0  0  0  0  0  0  0  0  0  0
    8.3076   -6.7749    3.7771 Br  0  0  0  0  0  0  0  0  0  0  0  0
    3.9397   -4.3786    4.1002 H   0  0  0  0  0  0  0  0  0  0  0  0
    6.0075   -5.3601    4.9909 H   0  0  0  0  0  0  0  0  0  0  0  0
    2.4880   -5.4730   -1.5234 H   0  0  0  0  0  0  0  0  0  0  0  0
    7.7083   -7.0468   -1.7586 H   0  0  0  0  0  0  0  0  0  0  0  0
    5.5400  -10.7598   -1.9835 H   0  0  0  0  0  0  0  0  0  0  0  0
    5.8942   -8.6827    1.7694 H   0  0  0  0  0  0  0  0  0  0  0  0
    0.9422   -7.0000   -2.7842 H   0  0  0  0  0  0  0  0  0  0  0  0
    2.8531   -3.3982    2.1092 H   0  0  0  0  0  0  0  0  0  0  0  0
    3.3067   -3.8778    0.5031 H   0  0  0  0  0  0  0  0  0  0  0  0
   -0.3326   -6.7221    2.8623 H   0  0  0  0  0  0  0  0  0  0  0  0
  1  9  1  0  0  0  0
  1 20  3  0  0  0  0
  2  3  2  0  0  0  0
  2 11  1  0  0  0  0
  2 29  1  0  0  0  0
  3 16  1  0  0  0  0
  3 30  1  0  0  0  0
  4  8  2  0  0  0  0
  4 10  1  0  0  0  0
  4 31  1  0  0  0  0
  5  9  2  0  0  0  0
  5 12  1  0  0  0  0
  5 32  1  0  0  0  0
  6  9  1  0  0  0  0
  6 15  2  0  0  0  0
  6 33  1  0  0  0  0
  7 12  2  0  0  0  0
  7 15  1  0  0  0  0
  7 34  1  0  0  0  0
  8 21  1  0  0  0  0
  8 35  1  0  0  0  0
 10 17  1  0  0  0  0
 10 18  2  0  0  0  0
 11 14  2  0  0  0  0
 11 19  1  0  0  0  0
 12 25  1  0  0  0  0
 13 14  1  0  0  0  0
 13 16  2  0  0  0  0
 13 25  1  0  0  0  0
 14 26  1  0  0  0  0
 15 27  1  0  0  0  0
 16 28  1  0  0  0  0
 17 19  1  0  0  0  0
 17 22  2  0  0  0  0
 18 23  1  0  0  0  0
 18 24  1  0  0  0  0
 19 36  1  0  0  0  0
 19 37  1  0  0  0  0
 21 23  2  0  0  0  0
 22 24  1  0  0  0  0
 24 38  1  0  0  0  0
M  END
$$$$
DrugBank_6353
 OpenBabel01151909533D

 50 51  0  0  1  0  0  0  0  0999 V2000
   -4.8068   -1.3193    2.3500 C   0  0  0  0  0  0  0  0  0  0  0  0
   -4.6811   -0.1227    1.6443 C   0  0  0  0  0  0  0  0  0  0  0  0
   -3.7099   -2.1712    2.4794 C   0  0  0  0  0  0  0  0  0  0  0  0
   -3.4586    0.2219    1.0678 C   0  0  0  0  0  0  0  0  0  0  0  0
   -2.4873   -1.8266    1.9029 C   0  0  0  0  0  0  0  0  0  0  0  0
   -2.3617   -0.6301    1.1971 C   0  0  0  0  0  0  0  0  0  0  0  0
   -1.0911   -0.2725    0.5982 C   0  0  0  0  0  0  0  0  0  0  0  0
   -0.1155    0.4346    1.1992 C   0  0  0  0  0  0  0  0  0  0  0  0
   -0.3817   -1.7576    7.3283 C   0  0  0  0  0  0  0  0  0  0  0  0
   -0.7501   -0.6862   -0.8111 C   0  0  0  0  0  0  0  0  0  0  0  0
    1.0802    0.6331    0.2977 C   0  0  0  0  0  0  0  0  0  0  0  0
   -0.6098   -2.1934   -0.9989 C   0  0  0  0  0  0  0  0  0  0  0  0
   -1.6293   -0.0410   -1.8774 C   0  0  0  0  0  0  0  0  0  0  0  0
    2.3401   -0.0717    0.7891 C   0  0  0  0  0  0  0  0  0  0  0  0
    1.3170    2.0882   -0.0925 C   0  0  0  0  0  0  0  0  0  0  0  0
   -0.1220    0.9969    2.5835 C   0  0  0  0  0  0  0  0  0  0  0  0
   -1.1991    0.3092    6.1104 C   0  0  0  0  0  0  0  0  0  0  0  0
   -1.3585   -1.2006    6.3059 C   0  0  2  0  0  0  0  0  0  0  0  0
    0.6083   -0.0859   -0.9166 N   0  0  0  0  0  0  0  0  0  0  0  0
   -2.7202   -1.5645    6.6086 N   0  0  0  0  0  0  0  0  0  0  0  0
   -0.6315   -1.8595    8.5233 O   0  0  0  0  0  0  0  0  0  0  0  0
    1.3156   -0.1810   -1.9719 O   0  0  0  0  0  0  0  0  0  0  0  0
    0.8076   -2.1198    6.7908 O   0  0  0  0  0  0  0  0  0  0  0  0
    0.5666   -0.2092    3.7374 S   0  0  0  0  0  0  0  0  0  0  0  0
    0.4413    0.7995    5.5261 S   0  0  0  0  0  0  0  0  0  0  0  0
   -5.7583   -1.5870    2.8000 H   0  0  0  0  0  0  0  0  0  0  0  0
   -5.5348    0.5414    1.5445 H   0  0  0  0  0  0  0  0  0  0  0  0
   -3.8072   -3.1024    3.0298 H   0  0  0  0  0  0  0  0  0  0  0  0
   -3.3761    1.1580    0.5206 H   0  0  0  0  0  0  0  0  0  0  0  0
   -1.6415   -2.5012    2.0125 H   0  0  0  0  0  0  0  0  0  0  0  0
   -0.3640   -2.4168   -2.0365 H   0  0  0  0  0  0  0  0  0  0  0  0
   -1.5456   -2.6881   -0.7413 H   0  0  0  0  0  0  0  0  0  0  0  0
    0.1826   -2.5753   -0.3561 H   0  0  0  0  0  0  0  0  0  0  0  0
   -1.3266   -0.3846   -2.8659 H   0  0  0  0  0  0  0  0  0  0  0  0
   -1.5312    1.0431   -1.8331 H   0  0  0  0  0  0  0  0  0  0  0  0
   -2.6719   -0.3104   -1.7116 H   0  0  0  0  0  0  0  0  0  0  0  0
    3.1616    0.1107    0.0971 H   0  0  0  0  0  0  0  0  0  0  0  0
    2.1635   -1.1448    0.8552 H   0  0  0  0  0  0  0  0  0  0  0  0
    2.6156    0.3041    1.7740 H   0  0  0  0  0  0  0  0  0  0  0  0
    2.1901    2.1617   -0.7401 H   0  0  0  0  0  0  0  0  0  0  0  0
    1.4859    2.6893    0.8004 H   0  0  0  0  0  0  0  0  0  0  0  0
    0.4480    2.4766   -0.6228 H   0  0  0  0  0  0  0  0  0  0  0  0
   -1.1452    1.2378    2.8749 H   0  0  0  0  0  0  0  0  0  0  0  0
    0.4704    1.9124    2.6114 H   0  0  0  0  0  0  0  0  0  0  0  0
   -1.3754    0.8276    7.0591 H   0  0  0  0  0  0  0  0  0  0  0  0
   -1.9333    0.6808    5.3878 H   0  0  0  0  0  0  0  0  0  0  0  0
   -1.1289   -1.7058    5.3601 H   0  0  0  0  0  0  0  0  0  0  0  0
   -2.9003   -2.4417    7.0668 H   0  0  0  0  0  0  0  0  0  0  0  0
   -3.4697   -1.0457    6.1831 H   0  0  0  0  0  0  0  0  0  0  0  0
    0.8329   -1.9700    5.8216 H   0  0  0  0  0  0  0  0  0  0  0  0
  1  2  2  0  0  0  0
  1  3  1  0  0  0  0
  1 26  1  0  0  0  0
  2  4  1  0  0  0  0
  2 27  1  0  0  0  0
  3  5  2  0  0  0  0
  3 28  1  0  0  0  0
  4  6  2  0  0  0  0
  4 29  1  0  0  0  0
  5  6  1  0  0  0  0
  5 30  1  0  0  0  0
  6  7  1  0  0  0  0
  7  8  2  0  0  0  0
  7 10  1  0  0  0  0
  8 11  1  0  0  0  0
  8 16  1  0  0  0  0
  9 18  1  0  0  0  0
  9 21  2  0  0  0  0
  9 23  1  0  0  0  0
 10 12  1  0  0  0  0
 10 13  1  0  0  0  0
 10 19  1  0  0  0  0
 11 14  1  0  0  0  0
 11 15  1  0  0  0  0
 11 19  1  0  0  0  0
 12 31  1  0  0  0  0
 12 32  1  0  0  0  0
 12 33  1  0  0  0  0
 13 34  1  0  0  0  0
 13 35  1  0  0  0  0
 13 36  1  0  0  0  0
 14 37  1  0  0  0  0
 14 38  1  0  0  0  0
 14 39  1  0  0  0  0
 15 40  1  0  0  0  0
 15 41  1  0  0  0  0
 15 42  1  0  0  0  0
 16 24  1  0  0  0  0
 16 43  1  0  0  0  0
 16 44  1  0  0  0  0
 17 18  1  0  0  0  0
 17 25  1  0  0  0  0
 17 45  1  0  0  0  0
 17 46  1  0  0  0  0
 18 20  1  0  0  0  0
 18 47  1  6  0  0  0
 19 22  2  0  0  0  0
 20 48  1  0  0  0  0
 20 49  1  0  0  0  0
 23 50  1  0  0  0  0
 24 25  1  0  0  0  0
M  END
$$$$
DrugBank_6355
 OpenBabel01151909533D

 47 49  0  0  0  0  0  0  0  0999 V2000
    3.4919    4.1035    7.3774 C   0  0  0  0  0  0  0  0  0  0  0  0
    5.4923    3.3429    8.4985 C   0  0  0  0  0  0  0  0  0  0  0  0
    5.2080    7.1039    7.4835 C   0  0  0  0  0  0  0  0  0  0  0  0
    3.8820    7.8953    9.3415 C   0  0  0  0  0  0  0  0  0  0  0  0
    3.5249    2.9777    6.5546 C   0  0  0  0  0  0  0  0  0  0  0  0
    5.5253    2.2170    7.6757 C   0  0  0  0  0  0  0  0  0  0  0  0
    5.2740    8.4020    6.9776 C   0  0  0  0  0  0  0  0  0  0  0  0
    3.9480    9.1936    8.8356 C   0  0  0  0  0  0  0  0  0  0  0  0
    4.4756    4.2862    8.3493 C   0  0  0  0  0  0  0  0  0  0  0  0
    4.5119    6.8505    8.6655 C   0  0  0  0  0  0  0  0  0  0  0  0
    4.5416    2.0344    6.7038 C   0  0  0  0  0  0  0  0  0  0  0  0
    4.6440    9.4469    7.6536 C   0  0  0  0  0  0  0  0  0  0  0  0
    5.4172    0.4660    2.5931 C   0  0  0  0  0  0  0  0  0  0  0  0
    4.7173    0.1035    3.6784 C   0  0  0  0  0  0  0  0  0  0  0  0
    4.4412    5.4599    9.2074 C   0  0  0  0  0  0  0  0  0  0  0  0
    6.4699   -0.4148   -2.0699 C   0  0  0  0  0  0  0  0  0  0  0  0
    7.6348   -0.0701   -1.1879 C   0  0  0  0  0  0  0  0  0  0  0  0
    6.5051   -0.9034   -0.6476 C   0  0  0  0  0  0  0  0  0  0  0  0
    4.2638   -0.9826    0.2142 C   0  0  0  0  0  0  0  0  0  0  0  0
    6.1009   -0.5045    1.6869 C   0  0  0  0  0  0  0  0  0  0  0  0
    4.0359    1.0726    4.5884 C   0  0  0  0  0  0  0  0  0  0  0  0
    5.5840   -0.3473    0.3571 N   0  0  0  0  0  0  0  0  0  0  0  0
    4.3500    5.3324   10.4374 O   0  0  0  0  0  0  0  0  0  0  0  0
    4.5744    0.9280    5.8952 O   0  0  0  0  0  0  0  0  0  0  0  0
    4.7335   11.2058    6.9682 Br  0  0  0  0  0  0  0  0  0  0  0  0
    2.6946    4.8316    7.2521 H   0  0  0  0  0  0  0  0  0  0  0  0
    6.2634    3.4759    9.2530 H   0  0  0  0  0  0  0  0  0  0  0  0
    5.7026    6.2971    6.9486 H   0  0  0  0  0  0  0  0  0  0  0  0
    3.3369    7.7091   10.2634 H   0  0  0  0  0  0  0  0  0  0  0  0
    2.7559    2.8411    5.7992 H   0  0  0  0  0  0  0  0  0  0  0  0
    6.3200    1.4858    7.7964 H   0  0  0  0  0  0  0  0  0  0  0  0
    5.8203    8.5825    6.0554 H   0  0  0  0  0  0  0  0  0  0  0  0
    3.4517    9.9965    9.3746 H   0  0  0  0  0  0  0  0  0  0  0  0
    5.5161    1.5217    2.3512 H   0  0  0  0  0  0  0  0  0  0  0  0
    4.6193   -0.9513    3.9233 H   0  0  0  0  0  0  0  0  0  0  0  0
    5.7836    0.3819   -2.3302 H   0  0  0  0  0  0  0  0  0  0  0  0
    6.6313   -1.1414   -2.8569 H   0  0  0  0  0  0  0  0  0  0  0  0
    8.5784   -0.5652   -1.3824 H   0  0  0  0  0  0  0  0  0  0  0  0
    7.7285    0.9574   -0.8578 H   0  0  0  0  0  0  0  0  0  0  0  0
    6.7096   -1.9600   -0.5067 H   0  0  0  0  0  0  0  0  0  0  0  0
    3.5698   -0.5778    0.9554 H   0  0  0  0  0  0  0  0  0  0  0  0
    4.3461   -2.0628    0.3623 H   0  0  0  0  0  0  0  0  0  0  0  0
    3.8604   -0.7956   -0.7846 H   0  0  0  0  0  0  0  0  0  0  0  0
    7.1764   -0.3070    1.6577 H   0  0  0  0  0  0  0  0  0  0  0  0
    5.9442   -1.5453    1.9861 H   0  0  0  0  0  0  0  0  0  0  0  0
    4.1740    2.1099    4.2672 H   0  0  0  0  0  0  0  0  0  0  0  0
    2.9642    0.8545    4.6260 H   0  0  0  0  0  0  0  0  0  0  0  0
  1  5  2  0  0  0  0
  1  9  1  0  0  0  0
  1 26  1  0  0  0  0
  2  6  1  0  0  0  0
  2  9  2  0  0  0  0
  2 27  1  0  0  0  0
  3  7  2  0  0  0  0
  3 10  1  0  0  0  0
  3 28  1  0  0  0  0
  4  8  1  0  0  0  0
  4 10  2  0  0  0  0
  4 29  1  0  0  0  0
  5 11  1  0  0  0  0
  5 30  1  0  0  0  0
  6 11  2  0  0  0  0
  6 31  1  0  0  0  0
  7 12  1  0  0  0  0
  7 32  1  0  0  0  0
  8 12  2  0  0  0  0
  8 33  1  0  0  0  0
  9 15  1  0  0  0  0
 10 15  1  0  0  0  0
 11 24  1  0  0  0  0
 12 25  1  0  0  0  0
 13 14  2  0  0  0  0
 13 20  1  0  0  0  0
 13 34  1  0  0  0  0
 14 21  1  0  0  0  0
 14 35  1  0  0  0  0
 15 23  2  0  0  0  0
 16 17  1  0  0  0  0
 16 18  1  0  0  0  0
 16 36  1  0  0  0  0
 16 37  1  0  0  0  0
 17 18  1  0  0  0  0
 17 38  1  0  0  0  0
 17 39  1  0  0  0  0
 18 22  1  0  0  0  0
 18 40  1  0  0  0  0
 19 22  1  0  0  0  0
 19 41  1  0  0  0  0
 19 42  1  0  0  0  0
 19 43  1  0  0  0  0
 20 22  1  0  0  0  0
 20 44  1  0  0  0  0
 20 45  1  0  0  0  0
 21 24  1  0  0  0  0
 21 46  1  0  0  0  0
 21 47  1  0  0  0  0
M  END
$$$$
DrugBank_1391
 OpenBabel01151909533D

 32 34  0  0  1  0  0  0  0  0999 V2000
    0.5998    3.5295   -4.1927 C   0  0  0  0  0  0  0  0  0  0  0  0
    0.7881    2.1873   -3.9783 C   0  0  0  0  0  0  0  0  0  0  0  0
   -2.0000    0.0826    0.6771 C   0  0  0  0  0  0  0  0  0  0  0  0
    1.0334    1.8618    1.3631 C   0  0  0  0  0  0  0  0  0  0  0  0
   -1.7288   -1.4179    0.8868 C   0  0  0  0  0  0  0  0  0  0  0  0
    0.1223    1.3719    0.2805 C   0  0  1  0  0  0  0  0  0  0  0  0
   -0.2597   -1.0147    1.0845 C   0  0  2  0  0  0  0  0  0  0  0  0
    0.8090    0.6254   -0.8774 C   0  0  2  0  0  0  0  0  0  0  0  0
    2.2031    1.1551   -1.2293 C   0  0  0  0  0  0  0  0  0  0  0  0
   -0.0668    0.6813   -2.1432 C   0  0  0  0  0  0  0  0  0  0  0  0
   -0.1906    4.0463   -3.2039 N   0  0  0  0  0  0  0  0  0  0  0  0
   -0.5024    3.0582   -2.3723 N   0  0  0  0  0  0  0  0  0  0  0  0
    0.0855    1.9445   -2.8383 N   0  0  0  0  0  0  0  0  0  0  0  0
   -0.6966    0.3787    0.9372 N   0  0  0  0  0  0  0  0  0  0  0  0
   -2.9397    0.7527    0.3141 O   0  0  0  0  0  0  0  0  0  0  0  0
    1.4514    1.1829    2.2893 O   0  0  0  0  0  0  0  0  0  0  0  0
    2.2283   -1.3457    0.2788 O   0  0  0  0  0  0  0  0  0  0  0  0
    0.3899   -2.0108   -1.2974 O   0  0  0  0  0  0  0  0  0  0  0  0
    1.3340    3.1708    1.1800 O   0  0  0  0  0  0  0  0  0  0  0  0
    0.9054   -1.1204   -0.2748 S   0  0  0  0  0  0  0  0  0  0  0  0
    0.9849    4.1410   -4.9945 H   0  0  0  0  0  0  0  0  0  0  0  0
    1.3346    1.4227   -4.5117 H   0  0  0  0  0  0  0  0  0  0  0  0
   -2.2191   -1.8304    1.7728 H   0  0  0  0  0  0  0  0  0  0  0  0
   -1.9528   -2.0372    0.0156 H   0  0  0  0  0  0  0  0  0  0  0  0
   -0.4963    2.2059   -0.0667 H   0  0  0  0  0  0  0  0  0  0  0  0
    0.1772   -1.2272    2.0641 H   0  0  0  0  0  0  0  0  0  0  0  0
    2.6155    0.5765   -2.0520 H   0  0  0  0  0  0  0  0  0  0  0  0
    2.8552    1.0669   -0.3640 H   0  0  0  0  0  0  0  0  0  0  0  0
    2.1323    2.1995   -1.5227 H   0  0  0  0  0  0  0  0  0  0  0  0
   -1.1126    0.5531   -1.8696 H   0  0  0  0  0  0  0  0  0  0  0  0
    0.2123   -0.1275   -2.8162 H   0  0  0  0  0  0  0  0  0  0  0  0
    0.9012    3.5376    0.3797 H   0  0  0  0  0  0  0  0  0  0  0  0
  1  2  2  0  0  0  0
  1 11  1  0  0  0  0
  1 21  1  0  0  0  0
  2 13  1  0  0  0  0
  2 22  1  0  0  0  0
  3  5  1  0  0  0  0
  3 14  1  0  0  0  0
  3 15  2  0  0  0  0
  4  6  1  0  0  0  0
  4 16  2  0  0  0  0
  4 19  1  0  0  0  0
  5  7  1  0  0  0  0
  5 23  1  0  0  0  0
  5 24  1  0  0  0  0
  6  8  1  6  0  0  0
  6 14  1  0  0  0  0
  6 25  1  0  0  0  0
  7 14  1  0  0  0  0
  7 20  1  0  0  0  0
  7 26  1  1  0  0  0
  8  9  1  6  0  0  0
  8 10  1  0  0  0  0
  8 20  1  0  0  0  0
  9 27  1  0  0  0  0
  9 28  1  0  0  0  0
  9 29  1  0  0  0  0
 10 13  1  0  0  0  0
 10 30  1  0  0  0  0
 10 31  1  0  0  0  0
 11 12  2  0  0  0  0
 12 13  1  0  0  0  0
 17 20  2  0  0  0  0
 18 20  2  0  0  0  0
 19 32  1  0  0  0  0
M  END
$$$$
DrugBank_4032
 OpenBabel01151909533D

 37 38  0  0  1  0  0  0  0  0999 V2000
   -0.6509    4.9446   -3.3758 C   0  0  0  0  0  0  0  0  0  0  0  0
    1.4986    4.2178   -4.2056 C   0  0  0  0  0  0  0  0  0  0  0  0
   -0.9760    5.4295   -4.6426 C   0  0  0  0  0  0  0  0  0  0  0  0
    1.1735    4.7027   -5.4725 C   0  0  0  0  0  0  0  0  0  0  0  0
    0.5864    4.3388   -3.1573 C   0  0  0  0  0  0  0  0  0  0  0  0
   -0.0639    5.3085   -5.6909 C   0  0  0  0  0  0  0  0  0  0  0  0
    0.0669    1.9745   -0.3535 C   0  0  0  0  0  0  0  0  0  0  0  0
   -1.6290    0.1957   -1.2051 C   0  0  1  0  0  0  0  0  0  0  0  0
   -0.4189    0.5909   -0.3876 C   0  0  2  0  0  0  0  0  0  0  0  0
   -1.7032    0.1810    0.3089 C   0  0  0  0  0  0  0  0  0  0  0  0
   -2.3740    1.1853   -2.0381 C   0  0  0  0  0  0  0  0  0  0  0  0
    2.4397    3.8686   -1.5031 C   0  0  0  0  0  0  0  0  0  0  0  0
    1.7084   -0.2222    1.0793 C   0  0  0  0  0  0  0  0  0  0  0  0
    0.9392    3.8127   -1.7827 C   0  0  2  0  0  0  0  0  0  0  0  0
    0.4353    2.4720   -1.5890 N   0  0  0  0  0  0  0  0  0  0  0  0
    0.1117    2.5730    0.7149 O   0  0  0  0  0  0  0  0  0  0  0  0
    1.8313   -0.2663   -1.5914 O   0  0  0  0  0  0  0  0  0  0  0  0
    0.9114   -0.6994   -0.4771 S   0  0  2  0  0  0  0  0  0  0  0  0
   -2.7778    1.3571    1.0779 Cl  0  0  0  0  0  0  0  0  0  0  0  0
   -1.7578   -1.3684    1.1633 Cl  0  0  0  0  0  0  0  0  0  0  0  0
   -0.5050    5.9662   -7.4069 Br  0  0  0  0  0  0  0  0  0  0  0  0
   -1.3679    5.0430   -2.5650 H   0  0  0  0  0  0  0  0  0  0  0  0
    2.4653    3.7482   -4.0445 H   0  0  0  0  0  0  0  0  0  0  0  0
   -1.9441    5.8997   -4.7957 H   0  0  0  0  0  0  0  0  0  0  0  0
    1.8952    4.6004   -6.2786 H   0  0  0  0  0  0  0  0  0  0  0  0
   -1.6223   -0.7666   -1.7097 H   0  0  0  0  0  0  0  0  0  0  0  0
   -2.4029    2.1760   -1.5586 H   0  0  0  0  0  0  0  0  0  0  0  0
   -3.4158    0.8703   -2.2039 H   0  0  0  0  0  0  0  0  0  0  0  0
   -1.9077    1.3125   -3.0273 H   0  0  0  0  0  0  0  0  0  0  0  0
    2.9995    3.2732   -2.2327 H   0  0  0  0  0  0  0  0  0  0  0  0
    2.8023    4.9012   -1.5580 H   0  0  0  0  0  0  0  0  0  0  0  0
    2.6845    3.4945   -0.5026 H   0  0  0  0  0  0  0  0  0  0  0  0
    2.5678   -0.8721    1.2578 H   0  0  0  0  0  0  0  0  0  0  0  0
    0.9887   -0.3265    1.8939 H   0  0  0  0  0  0  0  0  0  0  0  0
    2.0374    0.8165    1.0062 H   0  0  0  0  0  0  0  0  0  0  0  0
    0.4359    4.4242   -1.0237 H   0  0  0  0  0  0  0  0  0  0  0  0
    0.3478    1.8666   -2.3996 H   0  0  0  0  0  0  0  0  0  0  0  0
  1  3  2  0  0  0  0
  1  5  1  0  0  0  0
  1 22  1  0  0  0  0
  2  4  1  0  0  0  0
  2  5  2  0  0  0  0
  2 23  1  0  0  0  0
  3  6  1  0  0  0  0
  3 24  1  0  0  0  0
  4  6  2  0  0  0  0
  4 25  1  0  0  0  0
  5 14  1  0  0  0  0
  6 21  1  0  0  0  0
  7 15  1  0  0  0  0
  7 16  2  0  0  0  0
  8  9  1  6  0  0  0
  8 10  1  0  0  0  0
  8 11  1  0  0  0  0
  8 26  1  0  0  0  0
  9  7  1  1  0  0  0
  9 10  1  0  0  0  0
  9 18  1  0  0  0  0
 10 19  1  0  0  0  0
 10 20  1  0  0  0  0
 11 27  1  0  0  0  0
 11 28  1  0  0  0  0
 11 29  1  0  0  0  0
 12 14  1  0  0  0  0
 12 30  1  0  0  0  0
 12 31  1  0  0  0  0
 12 32  1  0  0  0  0
 13 18  1  0  0  0  0
 13 33  1  0  0  0  0
 13 34  1  0  0  0  0
 13 35  1  0  0  0  0
 14 15  1  0  0  0  0
 14 36  1  1  0  0  0
 15 37  1  0  0  0  0
 18 17  2  6  0  0  0
M  END
$$$$
DrugBank_6394
 OpenBabel01151909533D

 46 49  0  0  1  0  0  0  0  0999 V2000
   -2.9128   -1.2049   -8.5479 C   0  0  0  0  0  0  0  0  0  0  0  0
   -3.1413   -2.2187   -7.6223 C   0  0  0  0  0  0  0  0  0  0  0  0
   -2.3294   -0.0051   -8.1399 C   0  0  0  0  0  0  0  0  0  0  0  0
   -2.7872   -2.0367   -6.2852 C   0  0  0  0  0  0  0  0  0  0  0  0
   -1.3782    1.3967   -6.3698 C   0  0  0  0  0  0  0  0  0  0  0  0
   -1.0242    1.5788   -5.0327 C   0  0  0  0  0  0  0  0  0  0  0  0
   -1.8362   -0.6350   -4.5150 C   0  0  0  0  0  0  0  0  0  0  0  0
   -1.9666    0.1955   -6.7981 C   0  0  0  0  0  0  0  0  0  0  0  0
   -2.1989   -0.8355   -5.8569 C   0  0  0  0  0  0  0  0  0  0  0  0
   -1.2527    0.5649   -4.1071 C   0  0  0  0  0  0  0  0  0  0  0  0
    0.1065   -0.2709   -2.1365 C   0  0  0  0  0  0  0  0  0  0  0  0
   -0.8687    0.7637   -2.6608 C   0  0  2  0  0  0  0  0  0  0  0  0
    0.2447   -1.1255    1.6522 C   0  0  1  0  0  0  0  0  0  0  0  0
    1.0245    0.1291    2.0476 C   0  0  1  0  0  0  0  0  0  0  0  0
    0.3321   -1.3623    0.1451 C   0  0  2  0  0  0  0  0  0  0  0  0
    0.6298    1.3206    1.1682 C   0  0  1  0  0  0  0  0  0  0  0  0
   -0.0606   -0.1025   -0.6362 C   0  0  1  0  0  0  0  0  0  0  0  0
    1.5088    2.5408    1.4274 C   0  0  0  0  0  0  0  0  0  0  0  0
   -2.0056    0.6532   -1.7393 N   0  0  0  0  0  0  0  0  0  0  0  0
    0.7657    0.9952   -0.2187 O   0  0  0  0  0  0  0  0  0  0  0  0
   -1.4573    0.1864   -0.4631 O   0  0  0  0  0  0  0  0  0  0  0  0
    0.8111   -2.2565    2.3172 O   0  0  0  0  0  0  0  0  0  0  0  0
    0.7451    0.4091    3.4168 O   0  0  0  0  0  0  0  0  0  0  0  0
   -0.5234   -2.4453   -0.2127 O   0  0  0  0  0  0  0  0  0  0  0  0
    1.0885    3.5881    0.5725 O   0  0  0  0  0  0  0  0  0  0  0  0
   -3.1891   -1.3474   -9.5884 H   0  0  0  0  0  0  0  0  0  0  0  0
   -3.5960   -3.1522   -7.9406 H   0  0  0  0  0  0  0  0  0  0  0  0
   -2.1599    0.7734   -8.8812 H   0  0  0  0  0  0  0  0  0  0  0  0
   -2.9754   -2.8428   -5.5789 H   0  0  0  0  0  0  0  0  0  0  0  0
   -1.1906    2.2030   -7.0762 H   0  0  0  0  0  0  0  0  0  0  0  0
   -0.5704    2.5165   -4.7232 H   0  0  0  0  0  0  0  0  0  0  0  0
   -2.0092   -1.4202   -3.7808 H   0  0  0  0  0  0  0  0  0  0  0  0
   -0.1887   -1.2702   -2.4773 H   0  0  0  0  0  0  0  0  0  0  0  0
    1.1303   -0.0811   -2.4771 H   0  0  0  0  0  0  0  0  0  0  0  0
   -0.4267    1.7806   -2.5681 H   0  0  0  0  0  0  0  0  0  0  0  0
   -0.7989   -1.0618    1.9827 H   0  0  0  0  0  0  0  0  0  0  0  0
    2.0989   -0.0784    1.9622 H   0  0  0  0  0  0  0  0  0  0  0  0
    1.3619   -1.6545   -0.1095 H   0  0  0  0  0  0  0  0  0  0  0  0
   -0.4073    1.6167    1.3713 H   0  0  0  0  0  0  0  0  0  0  0  0
    2.5506    2.2997    1.2171 H   0  0  0  0  0  0  0  0  0  0  0  0
    1.4065    2.8590    2.4647 H   0  0  0  0  0  0  0  0  0  0  0  0
   -2.3289    1.5860   -1.4844 H   0  0  0  0  0  0  0  0  0  0  0  0
    0.2899   -3.0242    2.0398 H   0  0  0  0  0  0  0  0  0  0  0  0
    1.0364   -0.3657    3.9219 H   0  0  0  0  0  0  0  0  0  0  0  0
   -1.4204   -2.1848    0.0467 H   0  0  0  0  0  0  0  0  0  0  0  0
    1.6610    4.3528    0.7548 H   0  0  0  0  0  0  0  0  0  0  0  0
  1  2  2  0  0  0  0
  1  3  1  0  0  0  0
  1 26  1  0  0  0  0
  2  4  1  0  0  0  0
  2 27  1  0  0  0  0
  3  8  2  0  0  0  0
  3 28  1  0  0  0  0
  4  9  2  0  0  0  0
  4 29  1  0  0  0  0
  5  6  2  0  0  0  0
  5  8  1  0  0  0  0
  5 30  1  0  0  0  0
  6 10  1  0  0  0  0
  6 31  1  0  0  0  0
  7  9  1  0  0  0  0
  7 10  2  0  0  0  0
  7 32  1  0  0  0  0
  8  9  1  0  0  0  0
 10 12  1  0  0  0  0
 11 12  1  0  0  0  0
 11 17  1  0  0  0  0
 11 33  1  0  0  0  0
 11 34  1  0  0  0  0
 12 19  1  0  0  0  0
 12 35  1  1  0  0  0
 13 14  1  1  0  0  0
 13 22  1  0  0  0  0
 13 36  1  0  0  0  0
 14 16  1  6  0  0  0
 14 23  1  0  0  0  0
 14 37  1  0  0  0  0
 15 13  1  1  0  0  0
 15 24  1  0  0  0  0
 15 38  1  0  0  0  0
 16 18  1  0  0  0  0
 16 20  1  0  0  0  0
 16 39  1  1  0  0  0
 17 15  1  1  0  0  0
 17 20  1  0  0  0  0
 17 21  1  0  0  0  0
 18 25  1  0  0  0  0
 18 40  1  0  0  0  0
 18 41  1  0  0  0  0
 19 21  1  0  0  0  0
 19 42  1  0  0  0  0
 22 43  1  0  0  0  0
 23 44  1  0  0  0  0
 24 45  1  0  0  0  0
 25 46  1  0  0  0  0
M  END
$$$$
DrugBank_4039
 OpenBabel01151909533D

 75 75  0  0  0  0  0  0  0  0999 V2000
    0.2818   -2.1725   -3.6127 C   0  0  0  0  0  0  0  0  0  0  0  0
    1.6703   -3.2629   -1.9635 C   0  0  0  0  0  0  0  0  0  0  0  0
    0.6067   -2.4171   -2.2785 C   0  0  0  0  0  0  0  0  0  0  0  0
    1.0203   -2.7738   -4.6320 C   0  0  0  0  0  0  0  0  0  0  0  0
    2.4088   -3.8641   -2.9827 C   0  0  0  0  0  0  0  0  0  0  0  0
    2.0838   -3.6195   -4.3170 C   0  0  0  0  0  0  0  0  0  0  0  0
   -0.1682   -1.7885   -1.2116 C   0  0  0  0  0  0  0  0  0  0  0  0
    0.1180   -0.5941   -0.6666 C   0  0  0  0  0  0  0  0  0  0  0  0
   -4.1446    2.0346   -0.4277 C   0  0  0  0  0  0  0  0  0  0  0  0
   -1.9192   -3.1106    2.6756 C   0  0  0  0  0  0  0  0  0  0  0  0
   -0.4214    3.5003   -2.7359 C   0  0  0  0  0  0  0  0  0  0  0  0
    3.7384    0.3367    2.0461 C   0  0  0  0  0  0  0  0  0  0  0  0
   -0.5575   -1.5268   -6.1491 C   0  0  0  0  0  0  0  0  0  0  0  0
    0.2723   -3.8117   -6.8023 C   0  0  0  0  0  0  0  0  0  0  0  0
    1.7860   -1.8427   -6.9173 C   0  0  0  0  0  0  0  0  0  0  0  0
    3.7073   -4.8818   -1.0791 C   0  0  0  0  0  0  0  0  0  0  0  0
    4.8905   -4.2365   -3.2050 C   0  0  0  0  0  0  0  0  0  0  0  0
    3.4166   -6.2378   -3.1427 C   0  0  0  0  0  0  0  0  0  0  0  0
   -3.1376    1.4513    0.5405 C   0  0  0  0  0  0  0  0  0  0  0  0
   -0.9950   -2.0049    2.2118 C   0  0  0  0  0  0  0  0  0  0  0  0
    0.1283    2.0906   -2.6898 C   0  0  0  0  0  0  0  0  0  0  0  0
    3.1331   -0.1947    0.7643 C   0  0  0  0  0  0  0  0  0  0  0  0
    0.6584   -2.4987   -6.0546 C   0  0  0  0  0  0  0  0  0  0  0  0
    3.5433   -4.7672   -2.6257 C   0  0  0  0  0  0  0  0  0  0  0  0
   -0.3434    0.9901    1.6857 O   0  0  0  0  0  0  0  0  0  0  0  0
    2.4414    0.0795   -2.2462 O   0  0  0  0  0  0  0  0  0  0  0  0
    2.8059   -4.2074   -5.3135 O   0  0  0  0  0  0  0  0  0  0  0  0
   -2.1170    0.7970   -0.1935 O   0  0  0  0  0  0  0  0  0  0  0  0
   -1.6812   -1.1923    1.2750 O   0  0  0  0  0  0  0  0  0  0  0  0
    0.7828    1.8904   -1.4482 O   0  0  0  0  0  0  0  0  0  0  0  0
    2.2470    0.7766    0.2347 O   0  0  0  0  0  0  0  0  0  0  0  0
   -0.8998    0.0787    0.6193 P   0  0  0  0  0  0  0  0  0  0  0  0
    1.4640    0.4388   -1.1541 P   0  0  0  0  0  0  0  0  0  0  0  0
   -0.5472   -1.5139   -3.8643 H   0  0  0  0  0  0  0  0  0  0  0  0
    1.9273   -3.4575   -0.9241 H   0  0  0  0  0  0  0  0  0  0  0  0
   -1.0265   -2.3560   -0.8636 H   0  0  0  0  0  0  0  0  0  0  0  0
   -3.6708    2.7629   -1.0917 H   0  0  0  0  0  0  0  0  0  0  0  0
   -4.5983    1.2448   -1.0353 H   0  0  0  0  0  0  0  0  0  0  0  0
   -4.9592    2.5275    0.1133 H   0  0  0  0  0  0  0  0  0  0  0  0
   -2.8098   -2.6982    3.1578 H   0  0  0  0  0  0  0  0  0  0  0  0
   -2.2309   -3.7331    1.8304 H   0  0  0  0  0  0  0  0  0  0  0  0
   -1.4069   -3.7697    3.3844 H   0  0  0  0  0  0  0  0  0  0  0  0
   -1.1430    3.6643   -1.9307 H   0  0  0  0  0  0  0  0  0  0  0  0
    0.3867    4.2331   -2.6411 H   0  0  0  0  0  0  0  0  0  0  0  0
   -0.9134    3.6914   -3.6954 H   0  0  0  0  0  0  0  0  0  0  0  0
    4.2996    1.2567    1.8605 H   0  0  0  0  0  0  0  0  0  0  0  0
    2.9574    0.5421    2.7856 H   0  0  0  0  0  0  0  0  0  0  0  0
    4.4112   -0.4038    2.4911 H   0  0  0  0  0  0  0  0  0  0  0  0
   -0.8440   -1.3081   -7.1844 H   0  0  0  0  0  0  0  0  0  0  0  0
   -1.4423   -1.9406   -5.6530 H   0  0  0  0  0  0  0  0  0  0  0  0
   -0.3213   -0.5743   -5.6599 H   0  0  0  0  0  0  0  0  0  0  0  0
    0.0059   -3.6160   -7.8466 H   0  0  0  0  0  0  0  0  0  0  0  0
    1.0854   -4.5472   -6.8118 H   0  0  0  0  0  0  0  0  0  0  0  0
   -0.5957   -4.2803   -6.3235 H   0  0  0  0  0  0  0  0  0  0  0  0
    1.4727   -1.6608   -7.9524 H   0  0  0  0  0  0  0  0  0  0  0  0
    2.0863   -0.8755   -6.4975 H   0  0  0  0  0  0  0  0  0  0  0  0
    2.6717   -2.4875   -6.9578 H   0  0  0  0  0  0  0  0  0  0  0  0
    4.5347   -5.5402   -0.7896 H   0  0  0  0  0  0  0  0  0  0  0  0
    3.9006   -3.9052   -0.6219 H   0  0  0  0  0  0  0  0  0  0  0  0
    2.7905   -5.2802   -0.6284 H   0  0  0  0  0  0  0  0  0  0  0  0
    5.7266   -4.8953   -2.9461 H   0  0  0  0  0  0  0  0  0  0  0  0
    4.8762   -4.1519   -4.2980 H   0  0  0  0  0  0  0  0  0  0  0  0
    5.1149   -3.2440   -2.7965 H   0  0  0  0  0  0  0  0  0  0  0  0
    4.2724   -6.8606   -2.8556 H   0  0  0  0  0  0  0  0  0  0  0  0
    2.5187   -6.7184   -2.7371 H   0  0  0  0  0  0  0  0  0  0  0  0
    3.3530   -6.2629   -4.2368 H   0  0  0  0  0  0  0  0  0  0  0  0
   -3.6179    0.7238    1.2017 H   0  0  0  0  0  0  0  0  0  0  0  0
   -2.6847    2.2418    1.1462 H   0  0  0  0  0  0  0  0  0  0  0  0
   -0.1064   -2.4241    1.7305 H   0  0  0  0  0  0  0  0  0  0  0  0
   -0.6852   -1.3835    3.0573 H   0  0  0  0  0  0  0  0  0  0  0  0
    0.8493    1.9332   -3.4976 H   0  0  0  0  0  0  0  0  0  0  0  0
   -0.6804    1.3598   -2.7838 H   0  0  0  0  0  0  0  0  0  0  0  0
    2.5732   -1.1148    0.9570 H   0  0  0  0  0  0  0  0  0  0  0  0
    3.9146   -0.3986    0.0263 H   0  0  0  0  0  0  0  0  0  0  0  0
    3.5057   -4.7620   -4.9357 H   0  0  0  0  0  0  0  0  0  0  0  0
  1  3  2  0  0  0  0
  1  4  1  0  0  0  0
  1 34  1  0  0  0  0
  2  3  1  0  0  0  0
  2  5  2  0  0  0  0
  2 35  1  0  0  0  0
  3  7  1  0  0  0  0
  4  6  2  0  0  0  0
  4 23  1  0  0  0  0
  5  6  1  0  0  0  0
  5 24  1  0  0  0  0
  6 27  1  0  0  0  0
  7  8  2  0  0  0  0
  7 36  1  0  0  0  0
  8 32  1  0  0  0  0
  8 33  1  0  0  0  0
  9 19  1  0  0  0  0
  9 37  1  0  0  0  0
  9 38  1  0  0  0  0
  9 39  1  0  0  0  0
 10 20  1  0  0  0  0
 10 40  1  0  0  0  0
 10 41  1  0  0  0  0
 10 42  1  0  0  0  0
 11 21  1  0  0  0  0
 11 43  1  0  0  0  0
 11 44  1  0  0  0  0
 11 45  1  0  0  0  0
 12 22  1  0  0  0  0
 12 46  1  0  0  0  0
 12 47  1  0  0  0  0
 12 48  1  0  0  0  0
 13 23  1  0  0  0  0
 13 49  1  0  0  0  0
 13 50  1  0  0  0  0
 13 51  1  0  0  0  0
 14 23  1  0  0  0  0
 14 52  1  0  0  0  0
 14 53  1  0  0  0  0
 14 54  1  0  0  0  0
 15 23  1  0  0  0  0
 15 55  1  0  0  0  0
 15 56  1  0  0  0  0
 15 57  1  0  0  0  0
 16 24  1  0  0  0  0
 16 58  1  0  0  0  0
 16 59  1  0  0  0  0
 16 60  1  0  0  0  0
 17 24  1  0  0  0  0
 17 61  1  0  0  0  0
 17 62  1  0  0  0  0
 17 63  1  0  0  0  0
 18 24  1  0  0  0  0
 18 64  1  0  0  0  0
 18 65  1  0  0  0  0
 18 66  1  0  0  0  0
 19 28  1  0  0  0  0
 19 67  1  0  0  0  0
 19 68  1  0  0  0  0
 20 29  1  0  0  0  0
 20 69  1  0  0  0  0
 20 70  1  0  0  0  0
 21 30  1  0  0  0  0
 21 71  1  0  0  0  0
 21 72  1  0  0  0  0
 22 31  1  0  0  0  0
 22 73  1  0  0  0  0
 22 74  1  0  0  0  0
 25 32  2  0  0  0  0
 26 33  2  0  0  0  0
 27 75  1  0  0  0  0
 28 32  1  0  0  0  0
 29 32  1  0  0  0  0
 30 33  1  0  0  0  0
 31 33  1  0  0  0  0
M  END
$$$$
DrugBank_6397
 OpenBabel01151909533D

 43 45  0  0  1  0  0  0  0  0999 V2000
   -1.0243    1.5801   -5.0360 C   0  0  0  0  0  0  0  0  0  0  0  0
   -1.8363   -0.6347   -4.5144 C   0  0  0  0  0  0  0  0  0  0  0  0
   -1.3794    1.3957   -6.3722 C   0  0  0  0  0  0  0  0  0  0  0  0
   -2.1915   -0.8192   -5.8507 C   0  0  0  0  0  0  0  0  0  0  0  0
   -1.2527    0.5649   -4.1071 C   0  0  0  0  0  0  0  0  0  0  0  0
   -1.9630    0.1960   -6.7796 C   0  0  0  0  0  0  0  0  0  0  0  0
    0.1065   -0.2709   -2.1365 C   0  0  0  0  0  0  0  0  0  0  0  0
   -0.8687    0.7637   -2.6608 C   0  0  2  0  0  0  0  0  0  0  0  0
    0.2447   -1.1255    1.6522 C   0  0  1  0  0  0  0  0  0  0  0  0
    1.0245    0.1291    2.0476 C   0  0  1  0  0  0  0  0  0  0  0  0
    0.3321   -1.3623    0.1451 C   0  0  2  0  0  0  0  0  0  0  0  0
    0.6298    1.3206    1.1682 C   0  0  1  0  0  0  0  0  0  0  0  0
   -0.0606   -0.1025   -0.6362 C   0  0  1  0  0  0  0  0  0  0  0  0
   -2.3440    0.0002   -8.2082 C   0  0  0  0  0  0  0  0  0  0  0  0
    1.5088    2.5408    1.4274 C   0  0  0  0  0  0  0  0  0  0  0  0
   -2.0056    0.6532   -1.7393 N   0  0  0  0  0  0  0  0  0  0  0  0
    0.7657    0.9952   -0.2187 O   0  0  0  0  0  0  0  0  0  0  0  0
   -1.4573    0.1864   -0.4631 O   0  0  0  0  0  0  0  0  0  0  0  0
    0.8111   -2.2565    2.3172 O   0  0  0  0  0  0  0  0  0  0  0  0
    0.7451    0.4091    3.4168 O   0  0  0  0  0  0  0  0  0  0  0  0
   -0.5234   -2.4453   -0.2127 O   0  0  0  0  0  0  0  0  0  0  0  0
    1.0885    3.5881    0.5725 O   0  0  0  0  0  0  0  0  0  0  0  0
   -0.5695    2.5179   -4.7277 H   0  0  0  0  0  0  0  0  0  0  0  0
   -2.0189   -1.4306   -3.7970 H   0  0  0  0  0  0  0  0  0  0  0  0
   -1.1992    2.1926   -7.0887 H   0  0  0  0  0  0  0  0  0  0  0  0
   -2.6455   -1.7571   -6.1596 H   0  0  0  0  0  0  0  0  0  0  0  0
   -0.1887   -1.2702   -2.4773 H   0  0  0  0  0  0  0  0  0  0  0  0
    1.1303   -0.0811   -2.4771 H   0  0  0  0  0  0  0  0  0  0  0  0
   -0.4267    1.7806   -2.5681 H   0  0  0  0  0  0  0  0  0  0  0  0
   -0.7989   -1.0618    1.9827 H   0  0  0  0  0  0  0  0  0  0  0  0
    2.0989   -0.0784    1.9622 H   0  0  0  0  0  0  0  0  0  0  0  0
    1.3619   -1.6545   -0.1095 H   0  0  0  0  0  0  0  0  0  0  0  0
   -0.4073    1.6167    1.3713 H   0  0  0  0  0  0  0  0  0  0  0  0
   -1.5093   -0.4370   -8.7695 H   0  0  0  0  0  0  0  0  0  0  0  0
   -3.2123   -0.6648   -8.3014 H   0  0  0  0  0  0  0  0  0  0  0  0
   -2.6206    0.9518   -8.6807 H   0  0  0  0  0  0  0  0  0  0  0  0
    2.5506    2.2997    1.2171 H   0  0  0  0  0  0  0  0  0  0  0  0
    1.4065    2.8590    2.4647 H   0  0  0  0  0  0  0  0  0  0  0  0
   -2.3289    1.5860   -1.4844 H   0  0  0  0  0  0  0  0  0  0  0  0
    0.2899   -3.0242    2.0398 H   0  0  0  0  0  0  0  0  0  0  0  0
    1.0364   -0.3657    3.9219 H   0  0  0  0  0  0  0  0  0  0  0  0
   -1.4204   -2.1848    0.0467 H   0  0  0  0  0  0  0  0  0  0  0  0
    1.6610    4.3528    0.7548 H   0  0  0  0  0  0  0  0  0  0  0  0
  1  3  2  0  0  0  0
  1  5  1  0  0  0  0
  1 23  1  0  0  0  0
  2  4  1  0  0  0  0
  2  5  2  0  0  0  0
  2 24  1  0  0  0  0
  3  6  1  0  0  0  0
  3 25  1  0  0  0  0
  4  6  2  0  0  0  0
  4 26  1  0  0  0  0
  5  8  1  0  0  0  0
  6 14  1  0  0  0  0
  7  8  1  0  0  0  0
  7 13  1  0  0  0  0
  7 27  1  0  0  0  0
  7 28  1  0  0  0  0
  8 16  1  0  0  0  0
  8 29  1  1  0  0  0
  9 10  1  1  0  0  0
  9 19  1  0  0  0  0
  9 30  1  0  0  0  0
 10 12  1  6  0  0  0
 10 20  1  0  0  0  0
 10 31  1  0  0  0  0
 11  9  1  1  0  0  0
 11 21  1  0  0  0  0
 11 32  1  0  0  0  0
 12 15  1  0  0  0  0
 12 17  1  0  0  0  0
 12 33  1  1  0  0  0
 13 11  1  1  0  0  0
 13 17  1  0  0  0  0
 13 18  1  0  0  0  0
 14 34  1  0  0  0  0
 14 35  1  0  0  0  0
 14 36  1  0  0  0  0
 15 22  1  0  0  0  0
 15 37  1  0  0  0  0
 15 38  1  0  0  0  0
 16 18  1  0  0  0  0
 16 39  1  0  0  0  0
 19 40  1  0  0  0  0
 20 41  1  0  0  0  0
 21 42  1  0  0  0  0
 22 43  1  0  0  0  0
M  END
$$$$
DrugBank_6401
 OpenBabel01151909533D

 53 54  0  0  1  0  0  0  0  0999 V2000
   -1.7943   -7.1667    1.9453 C   0  0  0  0  0  0  0  0  0  0  0  0
   -3.6252    0.4733    6.0555 C   0  0  0  0  0  0  0  0  0  0  0  0
   -3.0818   -6.6565    2.1114 C   0  0  0  0  0  0  0  0  0  0  0  0
   -0.7297   -6.3031    1.6872 C   0  0  0  0  0  0  0  0  0  0  0  0
   -2.5061    0.9974    5.4085 C   0  0  0  0  0  0  0  0  0  0  0  0
   -3.8988   -0.8924    5.9797 C   0  0  0  0  0  0  0  0  0  0  0  0
   -3.3048   -5.2826    2.0193 C   0  0  0  0  0  0  0  0  0  0  0  0
   -0.9527   -4.9293    1.5951 C   0  0  0  0  0  0  0  0  0  0  0  0
   -1.6607    0.1558    4.6855 C   0  0  0  0  0  0  0  0  0  0  0  0
   -3.0534   -1.7339    5.2568 C   0  0  0  0  0  0  0  0  0  0  0  0
   -2.2403   -4.4190    1.7612 C   0  0  0  0  0  0  0  0  0  0  0  0
   -1.9344   -1.2099    4.6096 C   0  0  0  0  0  0  0  0  0  0  0  0
   -0.9766   -0.9654    0.0742 C   0  0  0  0  0  0  0  0  0  0  0  0
   -2.3116    2.1131    1.7126 C   0  0  0  0  0  0  0  0  0  0  0  0
   -4.6344    1.4591    1.0534 C   0  0  0  0  0  0  0  0  0  0  0  0
    0.7905   -1.5345    3.7921 C   0  0  0  0  0  0  0  0  0  0  0  0
   -2.4796   -2.9401    1.6617 C   0  0  0  0  0  0  0  0  0  0  0  0
   -2.8933   -0.3289    1.5991 C   0  0  0  0  0  0  0  0  0  0  0  0
   -1.4398   -0.8065    1.5138 C   0  0  1  0  0  0  0  0  0  0  0  0
   -3.1589    1.0626    0.9885 C   0  0  0  0  0  0  0  0  0  0  0  0
    0.1511   -0.2286   -0.1983 N   0  0  0  0  0  0  0  0  0  0  0  0
   -1.3117   -2.1665    2.0855 N   0  0  0  0  0  0  0  0  0  0  0  0
   -1.5502   -1.6939   -0.7331 O   0  0  0  0  0  0  0  0  0  0  0  0
   -0.7662   -3.6968    4.2130 O   0  0  0  0  0  0  0  0  0  0  0  0
    0.6533   -0.3428   -1.5015 O   0  0  0  0  0  0  0  0  0  0  0  0
   -0.8565   -2.2829    3.6879 P   0  0  2  0  0  0  0  0  0  0  0  0
   -1.6207   -8.2363    2.0184 H   0  0  0  0  0  0  0  0  0  0  0  0
   -4.2834    1.1288    6.6184 H   0  0  0  0  0  0  0  0  0  0  0  0
   -3.9107   -7.3286    2.3134 H   0  0  0  0  0  0  0  0  0  0  0  0
    0.2730   -6.6999    1.5590 H   0  0  0  0  0  0  0  0  0  0  0  0
   -2.2933    2.0608    5.4672 H   0  0  0  0  0  0  0  0  0  0  0  0
   -4.7700   -1.3003    6.4839 H   0  0  0  0  0  0  0  0  0  0  0  0
   -4.3114   -4.8940    2.1498 H   0  0  0  0  0  0  0  0  0  0  0  0
   -0.1173   -4.2640    1.3937 H   0  0  0  0  0  0  0  0  0  0  0  0
   -0.7908    0.5686    4.1828 H   0  0  0  0  0  0  0  0  0  0  0  0
   -3.2704   -2.7968    5.2009 H   0  0  0  0  0  0  0  0  0  0  0  0
   -2.5765    2.1627    2.7741 H   0  0  0  0  0  0  0  0  0  0  0  0
   -1.2464    1.8668    1.6472 H   0  0  0  0  0  0  0  0  0  0  0  0
   -2.4565    3.1087    1.2794 H   0  0  0  0  0  0  0  0  0  0  0  0
   -4.9955    1.4785    2.0871 H   0  0  0  0  0  0  0  0  0  0  0  0
   -5.2598    0.7642    0.4852 H   0  0  0  0  0  0  0  0  0  0  0  0
   -4.7880    2.4551    0.6237 H   0  0  0  0  0  0  0  0  0  0  0  0
    1.5144   -2.1428    3.2443 H   0  0  0  0  0  0  0  0  0  0  0  0
    0.7742   -0.5306    3.3606 H   0  0  0  0  0  0  0  0  0  0  0  0
    1.1055   -1.4652    4.8363 H   0  0  0  0  0  0  0  0  0  0  0  0
   -2.7164   -2.6559    0.6306 H   0  0  0  0  0  0  0  0  0  0  0  0
   -3.3268   -2.6363    2.2855 H   0  0  0  0  0  0  0  0  0  0  0  0
   -3.5372   -1.0681    1.1034 H   0  0  0  0  0  0  0  0  0  0  0  0
   -3.2092   -0.3117    2.6515 H   0  0  0  0  0  0  0  0  0  0  0  0
   -0.7633   -0.1254    2.0386 H   0  0  0  0  0  0  0  0  0  0  0  0
   -2.8502    1.0589   -0.0639 H   0  0  0  0  0  0  0  0  0  0  0  0
    0.5918    0.3602    0.4995 H   0  0  0  0  0  0  0  0  0  0  0  0
    1.4218    0.2499   -1.4450 H   0  0  0  0  0  0  0  0  0  0  0  0
  1  3  2  0  0  0  0
  1  4  1  0  0  0  0
  1 27  1  0  0  0  0
  2  5  2  0  0  0  0
  2  6  1  0  0  0  0
  2 28  1  0  0  0  0
  3  7  1  0  0  0  0
  3 29  1  0  0  0  0
  4  8  2  0  0  0  0
  4 30  1  0  0  0  0
  5  9  1  0  0  0  0
  5 31  1  0  0  0  0
  6 10  2  0  0  0  0
  6 32  1  0  0  0  0
  7 11  2  0  0  0  0
  7 33  1  0  0  0  0
  8 11  1  0  0  0  0
  8 34  1  0  0  0  0
  9 12  2  0  0  0  0
  9 35  1  0  0  0  0
 10 12  1  0  0  0  0
 10 36  1  0  0  0  0
 11 17  1  0  0  0  0
 12 26  1  0  0  0  0
 13 19  1  0  0  0  0
 13 21  1  0  0  0  0
 13 23  2  0  0  0  0
 14 20  1  0  0  0  0
 14 37  1  0  0  0  0
 14 38  1  0  0  0  0
 14 39  1  0  0  0  0
 15 20  1  0  0  0  0
 15 40  1  0  0  0  0
 15 41  1  0  0  0  0
 15 42  1  0  0  0  0
 16 26  1  0  0  0  0
 16 43  1  0  0  0  0
 16 44  1  0  0  0  0
 16 45  1  0  0  0  0
 17 22  1  0  0  0  0
 17 46  1  0  0  0  0
 17 47  1  0  0  0  0
 18 19  1  0  0  0  0
 18 20  1  0  0  0  0
 18 48  1  0  0  0  0
 18 49  1  0  0  0  0
 19 22  1  0  0  0  0
 19 50  1  1  0  0  0
 20 51  1  0  0  0  0
 21 25  1  0  0  0  0
 21 52  1  0  0  0  0
 22 26  1  0  0  0  0
 25 53  1  0  0  0  0
 26 24  2  1  0  0  0
M  END
$$$$
DrugBank_4047
 OpenBabel01151909533D

 34 36  0  0  0  0  0  0  0  0999 V2000
    3.6250    3.3144    1.0747 C   0  0  0  0  0  0  0  0  0  0  0  0
    3.9907    3.0678   -0.2485 C   0  0  0  0  0  0  0  0  0  0  0  0
    2.8565    2.3817    1.7714 C   0  0  0  0  0  0  0  0  0  0  0  0
   -0.4966   -2.0341    0.4940 C   0  0  0  0  0  0  0  0  0  0  0  0
    3.0228   -5.3167   -0.2210 C   0  0  0  0  0  0  0  0  0  0  0  0
   -0.0479   -3.3542    0.5448 C   0  0  0  0  0  0  0  0  0  0  0  0
    1.7243   -5.0072    0.1848 C   0  0  0  0  0  0  0  0  0  0  0  0
    3.5879    1.8886   -0.8753 C   0  0  0  0  0  0  0  0  0  0  0  0
    2.4537    1.2025    1.1446 C   0  0  0  0  0  0  0  0  0  0  0  0
    0.3500   -1.0275    0.0392 C   0  0  0  0  0  0  0  0  0  0  0  0
    3.8693   -4.3100   -0.6758 C   0  0  0  0  0  0  0  0  0  0  0  0
    1.2560   -3.6839    0.1403 C   0  0  0  0  0  0  0  0  0  0  0  0
    2.1168   -2.6602   -0.3222 C   0  0  0  0  0  0  0  0  0  0  0  0
    2.8193    0.9559   -0.1787 C   0  0  0  0  0  0  0  0  0  0  0  0
    1.6484   -1.3369   -0.3665 C   0  0  0  0  0  0  0  0  0  0  0  0
    3.4207   -2.9899   -0.7267 C   0  0  0  0  0  0  0  0  0  0  0  0
    2.4134   -0.2325   -0.8098 N   0  0  0  0  0  0  0  0  0  0  0  0
    5.7977   -2.6503   -1.7126 O   0  0  0  0  0  0  0  0  0  0  0  0
    3.9635   -1.0040   -2.2780 O   0  0  0  0  0  0  0  0  0  0  0  0
    5.0594   -0.9781   -0.0277 O   0  0  0  0  0  0  0  0  0  0  0  0
    4.6377   -1.8679   -1.3280 S   0  0  0  0  0  0  0  0  0  0  0  0
    3.9386    4.2329    1.5626 H   0  0  0  0  0  0  0  0  0  0  0  0
    4.5888    3.7940   -0.7907 H   0  0  0  0  0  0  0  0  0  0  0  0
    2.5718    2.5740    2.8019 H   0  0  0  0  0  0  0  0  0  0  0  0
   -1.5078   -1.7932    0.8093 H   0  0  0  0  0  0  0  0  0  0  0  0
    3.3726   -6.3441   -0.1816 H   0  0  0  0  0  0  0  0  0  0  0  0
   -0.7274   -4.1246    0.9036 H   0  0  0  0  0  0  0  0  0  0  0  0
    1.0802   -5.8103    0.5370 H   0  0  0  0  0  0  0  0  0  0  0  0
    3.8780    1.7060   -1.9067 H   0  0  0  0  0  0  0  0  0  0  0  0
    1.8552    0.4829    1.6975 H   0  0  0  0  0  0  0  0  0  0  0  0
   -0.0169   -0.0042    0.0059 H   0  0  0  0  0  0  0  0  0  0  0  0
    4.8769   -4.5745   -0.9872 H   0  0  0  0  0  0  0  0  0  0  0  0
    2.7282   -0.3201   -1.7697 H   0  0  0  0  0  0  0  0  0  0  0  0
    5.5284   -1.4688    0.6877 H   0  0  0  0  0  0  0  0  0  0  0  0
  1  2  2  0  0  0  0
  1  3  1  0  0  0  0
  1 22  1  0  0  0  0
  2  8  1  0  0  0  0
  2 23  1  0  0  0  0
  3  9  2  0  0  0  0
  3 24  1  0  0  0  0
  4  6  2  0  0  0  0
  4 10  1  0  0  0  0
  4 25  1  0  0  0  0
  5  7  2  0  0  0  0
  5 11  1  0  0  0  0
  5 26  1  0  0  0  0
  6 12  1  0  0  0  0
  6 27  1  0  0  0  0
  7 12  1  0  0  0  0
  7 28  1  0  0  0  0
  8 14  2  0  0  0  0
  8 29  1  0  0  0  0
  9 14  1  0  0  0  0
  9 30  1  0  0  0  0
 10 15  2  0  0  0  0
 10 31  1  0  0  0  0
 11 16  2  0  0  0  0
 11 32  1  0  0  0  0
 12 13  2  0  0  0  0
 13 15  1  0  0  0  0
 13 16  1  0  0  0  0
 14 17  1  0  0  0  0
 15 17  1  0  0  0  0
 16 21  1  0  0  0  0
 17 33  1  0  0  0  0
 18 21  2  0  0  0  0
 19 21  2  0  0  0  0
 20 21  1  0  0  0  0
 20 34  1  0  0  0  0
M  END
$$$$
DrugBank_4063
 OpenBabel01151909533D

 25 24  0  0  0  0  0  0  0  0999 V2000
   -1.4600   -0.9176    2.0450 C   0  0  0  0  0  0  0  0  0  0  0  0
   -2.9036    1.0222    1.3344 C   0  0  0  0  0  0  0  0  0  0  0  0
    3.0406   -0.6689    0.0072 C   0  0  0  0  0  0  0  0  0  0  0  0
    2.9943    1.8162   -0.4095 C   0  0  0  0  0  0  0  0  0  0  0  0
   -1.9813   -0.0969    0.8753 C   0  0  0  0  0  0  0  0  0  0  0  0
    2.1690    0.5707   -0.1245 C   0  0  0  0  0  0  0  0  0  0  0  0
   -0.8923   -0.7434   -2.1269 O   0  0  0  0  0  0  0  0  0  0  0  0
   -0.8854    0.4609    0.1719 O   0  0  0  0  0  0  0  0  0  0  0  0
    1.2383    0.3770   -1.1756 O   0  0  0  0  0  0  0  0  0  0  0  0
   -0.0942   -0.5050   -0.8713 P   0  0  0  0  0  0  0  0  0  0  0  0
   -0.9173   -0.2910    2.7592 H   0  0  0  0  0  0  0  0  0  0  0  0
   -2.2896   -1.4059    2.5675 H   0  0  0  0  0  0  0  0  0  0  0  0
   -0.7926   -1.7154    1.7008 H   0  0  0  0  0  0  0  0  0  0  0  0
   -2.3953    1.6951    2.0317 H   0  0  0  0  0  0  0  0  0  0  0  0
   -3.7882    0.6079    1.8298 H   0  0  0  0  0  0  0  0  0  0  0  0
   -3.2659    1.6087    0.4829 H   0  0  0  0  0  0  0  0  0  0  0  0
    3.6267   -0.8406   -0.9009 H   0  0  0  0  0  0  0  0  0  0  0  0
    3.7285   -0.5630    0.8529 H   0  0  0  0  0  0  0  0  0  0  0  0
    2.4333   -1.5589    0.2058 H   0  0  0  0  0  0  0  0  0  0  0  0
    3.5793    1.7038   -1.3274 H   0  0  0  0  0  0  0  0  0  0  0  0
    3.6804    2.0170    0.4203 H   0  0  0  0  0  0  0  0  0  0  0  0
    2.3536    2.6994   -0.5084 H   0  0  0  0  0  0  0  0  0  0  0  0
   -2.5182   -0.7509    0.1804 H   0  0  0  0  0  0  0  0  0  0  0  0
    1.5968    0.7146    0.7978 H   0  0  0  0  0  0  0  0  0  0  0  0
    0.3777   -1.5615   -0.0628 H   0  0  0  0  0  0  0  0  0  0  0  0
  1  5  1  0  0  0  0
  1 11  1  0  0  0  0
  1 12  1  0  0  0  0
  1 13  1  0  0  0  0
  2  5  1  0  0  0  0
  2 14  1  0  0  0  0
  2 15  1  0  0  0  0
  2 16  1  0  0  0  0
  3  6  1  0  0  0  0
  3 17  1  0  0  0  0
  3 18  1  0  0  0  0
  3 19  1  0  0  0  0
  4  6  1  0  0  0  0
  4 20  1  0  0  0  0
  4 21  1  0  0  0  0
  4 22  1  0  0  0  0
  5  8  1  0  0  0  0
  5 23  1  0  0  0  0
  6  9  1  0  0  0  0
  6 24  1  0  0  0  0
  7 10  2  0  0  0  0
  8 10  1  0  0  0  0
  9 10  1  0  0  0  0
 10 25  1  0  0  0  0
M  END
$$$$
DrugBank_4074
 OpenBabel01151909533D

 79 82  0  0  1  0  0  0  0  0999 V2000
    3.1774    2.3431   -5.6800 C   0  0  0  0  0  0  0  0  0  0  0  0
   -3.7458    3.0925   -4.6536 C   0  0  0  0  0  0  0  0  0  0  0  0
   -6.9594   -6.7083    3.7381 C   0  0  0  0  0  0  0  0  0  0  0  0
   -1.5513   -5.7487    6.4665 C   0  0  0  0  0  0  0  0  0  0  0  0
    3.2739    3.0245   -4.4667 C   0  0  0  0  0  0  0  0  0  0  0  0
    2.1748    1.3917   -5.8677 C   0  0  0  0  0  0  0  0  0  0  0  0
   -3.2319    3.4385   -3.4039 C   0  0  0  0  0  0  0  0  0  0  0  0
   -4.5938    1.9920   -4.7787 C   0  0  0  0  0  0  0  0  0  0  0  0
   -5.7061   -6.2121    4.0969 C   0  0  0  0  0  0  0  0  0  0  0  0
   -7.3969   -6.6089    2.4173 C   0  0  0  0  0  0  0  0  0  0  0  0
   -0.2969   -5.6273    5.8688 C   0  0  0  0  0  0  0  0  0  0  0  0
   -2.5516   -4.8186    6.1838 C   0  0  0  0  0  0  0  0  0  0  0  0
    2.3679    2.7545   -3.4412 C   0  0  0  0  0  0  0  0  0  0  0  0
    1.2687    1.1217   -4.8422 C   0  0  0  0  0  0  0  0  0  0  0  0
   -3.5658    2.6839   -2.2793 C   0  0  0  0  0  0  0  0  0  0  0  0
   -4.9277    1.2375   -3.6540 C   0  0  0  0  0  0  0  0  0  0  0  0
   -4.8903   -5.6165    3.1349 C   0  0  0  0  0  0  0  0  0  0  0  0
   -6.5811   -6.0133    1.4554 C   0  0  0  0  0  0  0  0  0  0  0  0
   -0.0427   -4.5756    4.9884 C   0  0  0  0  0  0  0  0  0  0  0  0
   -2.2975   -3.7669    5.3035 C   0  0  0  0  0  0  0  0  0  0  0  0
    1.3652    1.8031   -3.6289 C   0  0  0  0  0  0  0  0  0  0  0  0
   -4.4137    1.5834   -2.4043 C   0  0  0  0  0  0  0  0  0  0  0  0
   -5.3278   -5.5170    1.8142 C   0  0  0  0  0  0  0  0  0  0  0  0
   -1.0430   -3.6454    4.7058 C   0  0  0  0  0  0  0  0  0  0  0  0
   -2.5516    0.1154   -0.2231 C   0  0  0  0  0  0  0  0  0  0  0  0
   -4.0062   -2.7496   -0.1722 C   0  0  0  0  0  0  0  0  0  0  0  0
    0.3855    1.5105   -2.5206 C   0  0  0  0  0  0  0  0  0  0  0  0
   -4.7752    0.7664   -1.1879 C   0  0  0  0  0  0  0  0  0  0  0  0
   -4.4509   -4.8762    0.7789 C   0  0  0  0  0  0  0  0  0  0  0  0
    0.8879    0.3868   -1.6054 C   0  0  0  0  0  0  0  0  0  0  0  0
    0.4814   -1.0299    0.4441 C   0  0  0  0  0  0  0  0  0  0  0  0
   -0.3763   -1.3685    1.6593 C   0  0  0  0  0  0  0  0  0  0  0  0
   -3.7995   -0.3894   -0.9387 C   0  0  2  0  0  0  0  0  0  0  0  0
   -0.0666    0.1121   -0.4301 C   0  0  2  0  0  0  0  0  0  0  0  0
   -1.3910   -0.2061   -0.9131 N   0  0  0  0  0  0  0  0  0  0  0  0
   -4.3765   -1.4205   -0.1134 N   0  0  0  0  0  0  0  0  0  0  0  0
   -2.5900    0.6974    0.8589 O   0  0  0  0  0  0  0  0  0  0  0  0
   -3.1548   -3.2216   -0.9185 O   0  0  0  0  0  0  0  0  0  0  0  0
    1.5924   -2.3539    3.0631 O   0  0  0  0  0  0  0  0  0  0  0  0
    0.0198   -3.9415    1.8601 O   0  0  0  0  0  0  0  0  0  0  0  0
   -0.7927   -2.6084    3.8400 O   0  0  0  0  0  0  0  0  0  0  0  0
   -4.7329   -3.4730    0.7311 O   0  0  0  0  0  0  0  0  0  0  0  0
    0.2640   -2.7157    2.6002 S   0  0  0  0  0  0  0  0  0  0  0  0
    3.8822    2.5545   -6.4789 H   0  0  0  0  0  0  0  0  0  0  0  0
   -3.4868    3.6809   -5.5290 H   0  0  0  0  0  0  0  0  0  0  0  0
   -7.5939   -7.1733    4.4870 H   0  0  0  0  0  0  0  0  0  0  0  0
   -1.7497   -6.5678    7.1516 H   0  0  0  0  0  0  0  0  0  0  0  0
    4.0539    3.7661   -4.3207 H   0  0  0  0  0  0  0  0  0  0  0  0
    2.0987    0.8618   -6.8126 H   0  0  0  0  0  0  0  0  0  0  0  0
   -2.5725    4.2959   -3.3062 H   0  0  0  0  0  0  0  0  0  0  0  0
   -4.9950    1.7230   -5.7513 H   0  0  0  0  0  0  0  0  0  0  0  0
   -5.3648   -6.2904    5.1250 H   0  0  0  0  0  0  0  0  0  0  0  0
   -8.3721   -6.9961    2.1374 H   0  0  0  0  0  0  0  0  0  0  0  0
    0.4822   -6.3514    6.0889 H   0  0  0  0  0  0  0  0  0  0  0  0
   -3.5283   -4.9140    6.6496 H   0  0  0  0  0  0  0  0  0  0  0  0
    2.4508    3.2901   -2.4992 H   0  0  0  0  0  0  0  0  0  0  0  0
    0.4909    0.3787   -4.9974 H   0  0  0  0  0  0  0  0  0  0  0  0
   -3.1604    2.9608   -1.3096 H   0  0  0  0  0  0  0  0  0  0  0  0
   -5.5890    0.3817   -3.7610 H   0  0  0  0  0  0  0  0  0  0  0  0
   -3.9154   -5.2325    3.4236 H   0  0  0  0  0  0  0  0  0  0  0  0
   -6.9303   -5.9401    0.4288 H   0  0  0  0  0  0  0  0  0  0  0  0
    0.9370   -4.4858    4.5273 H   0  0  0  0  0  0  0  0  0  0  0  0
   -3.0799   -3.0443    5.0884 H   0  0  0  0  0  0  0  0  0  0  0  0
   -0.5841    1.2471   -2.9609 H   0  0  0  0  0  0  0  0  0  0  0  0
    0.2136    2.4234   -1.9364 H   0  0  0  0  0  0  0  0  0  0  0  0
   -4.8249    1.4192   -0.3059 H   0  0  0  0  0  0  0  0  0  0  0  0
   -5.7961    0.3846   -1.3212 H   0  0  0  0  0  0  0  0  0  0  0  0
   -3.3919   -5.0197    1.0193 H   0  0  0  0  0  0  0  0  0  0  0  0
   -4.6340   -5.3132   -0.2087 H   0  0  0  0  0  0  0  0  0  0  0  0
    1.0297   -0.5305   -2.1926 H   0  0  0  0  0  0  0  0  0  0  0  0
    1.8749    0.6619   -1.2109 H   0  0  0  0  0  0  0  0  0  0  0  0
    0.5741   -1.9363   -0.1684 H   0  0  0  0  0  0  0  0  0  0  0  0
    1.4925   -0.7720    0.7837 H   0  0  0  0  0  0  0  0  0  0  0  0
   -0.4910   -0.5190    2.3378 H   0  0  0  0  0  0  0  0  0  0  0  0
   -1.3743   -1.6779    1.3319 H   0  0  0  0  0  0  0  0  0  0  0  0
   -3.5043   -0.8703   -1.8787 H   0  0  0  0  0  0  0  0  0  0  0  0
   -0.1609    1.0259    0.1660 H   0  0  0  0  0  0  0  0  0  0  0  0
   -1.4768   -0.6895   -1.8024 H   0  0  0  0  0  0  0  0  0  0  0  0
   -5.0985   -1.1537    0.5511 H   0  0  0  0  0  0  0  0  0  0  0  0
  1  5  2  0  0  0  0
  1  6  1  0  0  0  0
  1 44  1  0  0  0  0
  2  7  2  0  0  0  0
  2  8  1  0  0  0  0
  2 45  1  0  0  0  0
  3  9  2  0  0  0  0
  3 10  1  0  0  0  0
  3 46  1  0  0  0  0
  4 11  2  0  0  0  0
  4 12  1  0  0  0  0
  4 47  1  0  0  0  0
  5 13  1  0  0  0  0
  5 48  1  0  0  0  0
  6 14  2  0  0  0  0
  6 49  1  0  0  0  0
  7 15  1  0  0  0  0
  7 50  1  0  0  0  0
  8 16  2  0  0  0  0
  8 51  1  0  0  0  0
  9 17  1  0  0  0  0
  9 52  1  0  0  0  0
 10 18  2  0  0  0  0
 10 53  1  0  0  0  0
 11 19  1  0  0  0  0
 11 54  1  0  0  0  0
 12 20  2  0  0  0  0
 12 55  1  0  0  0  0
 13 21  2  0  0  0  0
 13 56  1  0  0  0  0
 14 21  1  0  0  0  0
 14 57  1  0  0  0  0
 15 22  2  0  0  0  0
 15 58  1  0  0  0  0
 16 22  1  0  0  0  0
 16 59  1  0  0  0  0
 17 23  2  0  0  0  0
 17 60  1  0  0  0  0
 18 23  1  0  0  0  0
 18 61  1  0  0  0  0
 19 24  2  0  0  0  0
 19 62  1  0  0  0  0
 20 24  1  0  0  0  0
 20 63  1  0  0  0  0
 21 27  1  0  0  0  0
 22 28  1  0  0  0  0
 23 29  1  0  0  0  0
 24 41  1  0  0  0  0
 25 33  1  0  0  0  0
 25 35  1  0  0  0  0
 25 37  2  0  0  0  0
 26 36  1  0  0  0  0
 26 38  2  0  0  0  0
 26 42  1  0  0  0  0
 27 30  1  0  0  0  0
 27 64  1  0  0  0  0
 27 65  1  0  0  0  0
 28 33  1  0  0  0  0
 28 66  1  0  0  0  0
 28 67  1  0  0  0  0
 29 42  1  0  0  0  0
 29 68  1  0  0  0  0
 29 69  1  0  0  0  0
 30 34  1  0  0  0  0
 30 70  1  0  0  0  0
 30 71  1  0  0  0  0
 31 32  1  0  0  0  0
 31 34  1  0  0  0  0
 31 72  1  0  0  0  0
 31 73  1  0  0  0  0
 32 43  1  0  0  0  0
 32 74  1  0  0  0  0
 32 75  1  0  0  0  0
 33 36  1  0  0  0  0
 33 76  1  6  0  0  0
 34 35  1  0  0  0  0
 34 77  1  1  0  0  0
 35 78  1  0  0  0  0
 36 79  1  0  0  0  0
 39 43  2  0  0  0  0
 40 43  2  0  0  0  0
 41 43  1  0  0  0  0
M  END
$$$$
DrugBank_1439
 OpenBabel01151909533D

 40 42  0  0  0  0  0  0  0  0999 V2000
    1.8851   -1.0363   -0.1124 C   0  0  0  0  0  0  0  0  0  0  0  0
    0.8066   -0.4630    0.5610 C   0  0  0  0  0  0  0  0  0  0  0  0
    2.8783   -1.6520    2.0022 C   0  0  0  0  0  0  0  0  0  0  0  0
    8.0589   -4.7586    0.5397 C   0  0  0  0  0  0  0  0  0  0  0  0
    6.9274   -5.4798   -1.3252 C   0  0  0  0  0  0  0  0  0  0  0  0
    2.9210   -1.6309    0.6081 C   0  0  0  0  0  0  0  0  0  0  0  0
    5.8249   -4.0195    0.1941 C   0  0  0  0  0  0  0  0  0  0  0  0
    0.7638   -0.4841    1.9551 C   0  0  0  0  0  0  0  0  0  0  0  0
    1.7997   -1.0786    2.6757 C   0  0  0  0  0  0  0  0  0  0  0  0
    6.9763   -4.0106    0.9735 C   0  0  0  0  0  0  0  0  0  0  0  0
    5.7917   -4.7657   -0.9787 C   0  0  0  0  0  0  0  0  0  0  0  0
    4.0445   -2.2305   -0.0942 C   0  0  0  0  0  0  0  0  0  0  0  0
    0.4191   -3.2607    6.0112 C   0  0  0  0  0  0  0  0  0  0  0  0
    1.6760   -3.8891    6.5448 C   0  0  0  0  0  0  0  0  0  0  0  0
    1.7111   -2.4918    5.9902 C   0  0  0  0  0  0  0  0  0  0  0  0
    2.4090   -2.2102    4.6767 C   0  0  0  0  0  0  0  0  0  0  0  0
   -1.5489    0.0705    1.9302 C   0  0  0  0  0  0  0  0  0  0  0  0
    8.0642   -5.4956   -0.5936 N   0  0  0  0  0  0  0  0  0  0  0  0
    4.6898   -3.2699    0.5935 N   0  0  0  0  0  0  0  0  0  0  0  0
    4.4142   -1.8189   -1.2027 O   0  0  0  0  0  0  0  0  0  0  0  0
    1.7685   -1.1079    4.0373 O   0  0  0  0  0  0  0  0  0  0  0  0
   -0.2951    0.0791    2.6011 O   0  0  0  0  0  0  0  0  0  0  0  0
   -2.5196    0.0238    2.8789 F   0  0  0  0  0  0  0  0  0  0  0  0
   -1.7097    1.2446    1.2718 F   0  0  0  0  0  0  0  0  0  0  0  0
    7.1016   -3.1129    2.4375 Cl  0  0  0  0  0  0  0  0  0  0  0  0
    4.4077   -4.8310   -2.0008 Cl  0  0  0  0  0  0  0  0  0  0  0  0
    1.9079   -1.0141   -1.1989 H   0  0  0  0  0  0  0  0  0  0  0  0
    0.0030   -0.0012   -0.0060 H   0  0  0  0  0  0  0  0  0  0  0  0
    3.6832   -2.1169    2.5670 H   0  0  0  0  0  0  0  0  0  0  0  0
    8.9875   -4.7941    1.1021 H   0  0  0  0  0  0  0  0  0  0  0  0
    6.9669   -6.0819   -2.2280 H   0  0  0  0  0  0  0  0  0  0  0  0
    0.0250   -3.6392    5.0761 H   0  0  0  0  0  0  0  0  0  0  0  0
   -0.3359   -2.9578    6.7263 H   0  0  0  0  0  0  0  0  0  0  0  0
    1.7636   -4.0078    7.6178 H   0  0  0  0  0  0  0  0  0  0  0  0
    2.1237   -4.6881    5.9669 H   0  0  0  0  0  0  0  0  0  0  0  0
    1.8215   -1.6747    6.6928 H   0  0  0  0  0  0  0  0  0  0  0  0
    2.3525   -3.0815    4.0175 H   0  0  0  0  0  0  0  0  0  0  0  0
    3.4598   -1.9570    4.8468 H   0  0  0  0  0  0  0  0  0  0  0  0
   -1.6772   -0.7837    1.2568 H   0  0  0  0  0  0  0  0  0  0  0  0
    4.2913   -3.5175    1.4959 H   0  0  0  0  0  0  0  0  0  0  0  0
  1  2  2  0  0  0  0
  1  6  1  0  0  0  0
  1 27  1  0  0  0  0
  2  8  1  0  0  0  0
  2 28  1  0  0  0  0
  3  6  2  0  0  0  0
  3  9  1  0  0  0  0
  3 29  1  0  0  0  0
  4 10  2  0  0  0  0
  4 18  1  0  0  0  0
  4 30  1  0  0  0  0
  5 11  1  0  0  0  0
  5 18  2  0  0  0  0
  5 31  1  0  0  0  0
  6 12  1  0  0  0  0
  7 10  1  0  0  0  0
  7 11  2  0  0  0  0
  7 19  1  0  0  0  0
  8  9  2  0  0  0  0
  8 22  1  0  0  0  0
  9 21  1  0  0  0  0
 10 25  1  0  0  0  0
 11 26  1  0  0  0  0
 12 19  1  0  0  0  0
 12 20  2  0  0  0  0
 13 14  1  0  0  0  0
 13 15  1  0  0  0  0
 13 32  1  0  0  0  0
 13 33  1  0  0  0  0
 14 15  1  0  0  0  0
 14 34  1  0  0  0  0
 14 35  1  0  0  0  0
 15 16  1  0  0  0  0
 15 36  1  0  0  0  0
 16 21  1  0  0  0  0
 16 37  1  0  0  0  0
 16 38  1  0  0  0  0
 17 22  1  0  0  0  0
 17 23  1  0  0  0  0
 17 24  1  0  0  0  0
 17 39  1  0  0  0  0
 19 40  1  0  0  0  0
M  END
$$$$
DrugBank_1447
 OpenBabel01151909533D

 20 20  0  0  1  0  0  0  0  0999 V2000
    0.8818    2.3436   -1.9685 C   0  0  0  0  0  0  0  0  0  0  0  0
    0.4934    1.8971   -0.7789 C   0  0  0  0  0  0  0  0  0  0  0  0
   -0.5153    2.8783   -0.3640 C   0  0  0  0  0  0  0  0  0  0  0  0
   -0.9618   -0.7648   -0.8605 C   0  0  0  0  0  0  0  0  0  0  0  0
    0.9197    0.7063    0.0157 C   0  0  0  0  0  0  0  0  0  0  0  0
   -0.2591   -0.2101    0.3676 C   0  0  2  0  0  0  0  0  0  0  0  0
   -0.6060    3.8072   -1.3762 N   0  0  0  0  0  0  0  0  0  0  0  0
    0.2085   -1.3670    1.1296 N   0  0  0  0  0  0  0  0  0  0  0  0
   -1.1340    2.8432    0.6861 O   0  0  0  0  0  0  0  0  0  0  0  0
   -0.6598   -1.7999   -1.4397 O   0  0  0  0  0  0  0  0  0  0  0  0
    0.2827    3.4907   -2.4276 O   0  0  0  0  0  0  0  0  0  0  0  0
   -1.9933    0.0268   -1.2592 O   0  0  0  0  0  0  0  0  0  0  0  0
    1.6149    1.9204   -2.6326 H   0  0  0  0  0  0  0  0  0  0  0  0
    1.6859    0.1603   -0.5484 H   0  0  0  0  0  0  0  0  0  0  0  0
    1.4002    1.0713    0.9318 H   0  0  0  0  0  0  0  0  0  0  0  0
   -0.9922    0.3503    0.9607 H   0  0  0  0  0  0  0  0  0  0  0  0
   -1.1925    4.6287   -1.4485 H   0  0  0  0  0  0  0  0  0  0  0  0
   -0.3471   -2.1936    1.1122 H   0  0  0  0  0  0  0  0  0  0  0  0
    0.9407   -1.2264    1.7903 H   0  0  0  0  0  0  0  0  0  0  0  0
   -2.1324    0.8285   -0.7108 H   0  0  0  0  0  0  0  0  0  0  0  0
  1  2  2  0  0  0  0
  1 11  1  0  0  0  0
  1 13  1  0  0  0  0
  2  3  1  0  0  0  0
  2  5  1  0  0  0  0
  3  7  1  0  0  0  0
  3  9  2  0  0  0  0
  4  6  1  0  0  0  0
  4 10  2  0  0  0  0
  4 12  1  0  0  0  0
  5  6  1  0  0  0  0
  5 14  1  0  0  0  0
  5 15  1  0  0  0  0
  6  8  1  0  0  0  0
  6 16  1  1  0  0  0
  7 11  1  0  0  0  0
  7 17  1  0  0  0  0
  8 18  1  0  0  0  0
  8 19  1  0  0  0  0
 12 20  1  0  0  0  0
M  END
$$$$
DrugBank_1448
 OpenBabel01151909533D

 17 18  0  0  1  0  0  0  0  0999 V2000
    2.1980    0.2406   -1.2037 C   0  0  0  0  0  0  0  0  0  0  0  0
    1.5294   -0.9064   -1.7824 C   0  0  0  0  0  0  0  0  0  0  0  0
    1.6521    1.0082   -0.2513 C   0  0  0  0  0  0  0  0  0  0  0  0
    0.3036   -1.3056   -1.4186 C   0  0  0  0  0  0  0  0  0  0  0  0
    0.3075    0.6473    0.2115 C   0  0  0  0  0  0  0  0  0  0  0  0
   -0.3749   -0.5234   -0.3791 C   0  0  0  0  0  0  0  0  0  0  0  0
   -1.6600    0.4023    1.1214 C   0  0  1  0  0  0  0  0  0  0  0  0
   -0.4169    1.2218    1.1074 N   0  0  0  0  0  0  0  0  0  0  0  0
   -1.5413   -0.7068    0.1342 N   0  0  0  0  0  0  0  0  0  0  0  0
   -1.9975   -0.0779    2.4608 N   0  0  0  0  0  0  0  0  0  0  0  0
    3.1913    0.4688   -1.5776 H   0  0  0  0  0  0  0  0  0  0  0  0
    2.0704   -1.4541   -2.5478 H   0  0  0  0  0  0  0  0  0  0  0  0
    2.1584    1.8633    0.1761 H   0  0  0  0  0  0  0  0  0  0  0  0
   -0.1888   -2.1639   -1.8557 H   0  0  0  0  0  0  0  0  0  0  0  0
   -2.4791    1.0510    0.7881 H   0  0  0  0  0  0  0  0  0  0  0  0
   -2.5980   -0.8689    2.5358 H   0  0  0  0  0  0  0  0  0  0  0  0
   -1.7882    0.5127    3.2351 H   0  0  0  0  0  0  0  0  0  0  0  0
  1  2  1  0  0  0  0
  1  3  2  0  0  0  0
  1 11  1  0  0  0  0
  2  4  2  0  0  0  0
  2 12  1  0  0  0  0
  3  5  1  0  0  0  0
  3 13  1  0  0  0  0
  4  6  1  0  0  0  0
  4 14  1  0  0  0  0
  5  6  1  0  0  0  0
  5  8  2  0  0  0  0
  6  9  2  0  0  0  0
  7  8  1  0  0  0  0
  7  9  1  0  0  0  0
  7 10  1  0  0  0  0
  7 15  1  6  0  0  0
 10 16  1  0  0  0  0
 10 17  1  0  0  0  0
M  END
$$$$
DrugBank_1449
 OpenBabel01151909533D

 48 48  0  0  1  0  0  0  0  0999 V2000
   -0.7565   -1.1375    0.7350 C   0  0  1  0  0  0  0  0  0  0  0  0
   -1.4308    0.2419    0.6141 C   0  0  2  0  0  0  0  0  0  0  0  0
    0.7641   -1.0792    0.5537 C   0  0  1  0  0  0  0  0  0  0  0  0
   -1.0422    0.9355   -0.6984 C   0  0  1  0  0  0  0  0  0  0  0  0
    1.1187   -0.4093   -0.7806 C   0  0  1  0  0  0  0  0  0  0  0  0
    0.4822    0.9817   -0.9007 C   0  0  1  0  0  0  0  0  0  0  0  0
   -3.4818   -1.4269    2.4623 O   0  0  0  0  0  0  0  0  0  0  0  0
   -2.7077   -3.4217    1.1401 O   0  0  0  0  0  0  0  0  0  0  0  0
   -1.6795    3.4309    1.1567 O   0  0  0  0  0  0  0  0  0  0  0  0
   -3.4193    1.9234    2.1702 O   0  0  0  0  0  0  0  0  0  0  0  0
    0.2995   -1.0699    3.7706 O   0  0  0  0  0  0  0  0  0  0  0  0
    2.3001   -2.3012    2.8716 O   0  0  0  0  0  0  0  0  0  0  0  0
   -3.9877   -0.3224   -1.2249 O   0  0  0  0  0  0  0  0  0  0  0  0
   -3.4406    1.8859   -2.2978 O   0  0  0  0  0  0  0  0  0  0  0  0
    3.6042   -2.4054   -0.1610 O   0  0  0  0  0  0  0  0  0  0  0  0
    2.8893   -2.1205   -2.5557 O   0  0  0  0  0  0  0  0  0  0  0  0
   -0.6638    3.4948   -2.6017 O   0  0  0  0  0  0  0  0  0  0  0  0
    1.5432    3.7749   -1.4282 O   0  0  0  0  0  0  0  0  0  0  0  0
   -2.2997   -3.2992    3.5980 O   0  0  0  0  0  0  0  0  0  0  0  0
   -1.5457    2.8048    3.5615 O   0  0  0  0  0  0  0  0  0  0  0  0
    2.5578   -0.0290    3.8682 O   0  0  0  0  0  0  0  0  0  0  0  0
   -3.3576   -0.2214   -3.6302 O   0  0  0  0  0  0  0  0  0  0  0  0
    4.8896   -0.9129   -1.6819 O   0  0  0  0  0  0  0  0  0  0  0  0
    1.4645    3.3161   -3.8789 O   0  0  0  0  0  0  0  0  0  0  0  0
   -1.0608   -1.7274    1.9952 O   0  0  0  0  0  0  0  0  0  0  0  0
   -1.0958    1.0799    1.7176 O   0  0  0  0  0  0  0  0  0  0  0  0
    1.3396   -0.3375    1.6319 O   0  0  0  0  0  0  0  0  0  0  0  0
   -1.6286    0.2209   -1.7886 O   0  0  0  0  0  0  0  0  0  0  0  0
    2.5362   -0.2781   -0.8835 O   0  0  0  0  0  0  0  0  0  0  0  0
    0.7739    1.5092   -2.1955 O   0  0  0  0  0  0  0  0  0  0  0  0
   -2.4992   -2.4645    2.2106 S   0  0  0  0  0  0  0  0  0  0  0  0
   -2.0400    2.3632    2.0709 S   0  0  0  0  0  0  0  0  0  0  0  0
    1.5739   -1.0618    3.0766 S   0  0  0  0  0  0  0  0  0  0  0  0
   -3.1995    0.4618   -2.1573 S   0  0  0  0  0  0  0  0  0  0  0  0
    3.4357   -1.5646   -1.3317 S   0  0  0  0  0  0  0  0  0  0  0  0
    0.7287    3.1218   -2.4360 S   0  0  0  0  0  0  0  0  0  0  0  0
   -1.1972   -1.8355   -0.0188 H   0  0  0  0  0  0  0  0  0  0  0  0
   -2.5321    0.1138    0.6424 H   0  0  0  0  0  0  0  0  0  0  0  0
    1.1640   -2.0792    0.5811 H   0  0  0  0  0  0  0  0  0  0  0  0
   -1.4618    1.9459   -0.7257 H   0  0  0  0  0  0  0  0  0  0  0  0
    0.7984   -1.0577   -1.6006 H   0  0  0  0  0  0  0  0  0  0  0  0
    0.9167    1.6722   -0.1651 H   0  0  0  0  0  0  0  0  0  0  0  0
   -1.5385   -3.9249    3.6145 H   0  0  0  0  0  0  0  0  0  0  0  0
   -1.5775    2.0992    4.2487 H   0  0  0  0  0  0  0  0  0  0  0  0
    3.3982    0.1990    3.4068 H   0  0  0  0  0  0  0  0  0  0  0  0
   -2.7416    0.1112   -4.3239 H   0  0  0  0  0  0  0  0  0  0  0  0
    4.8838   -0.1907   -2.3524 H   0  0  0  0  0  0  0  0  0  0  0  0
    2.3725    2.9396   -3.9497 H   0  0  0  0  0  0  0  0  0  0  0  0
  1  2  1  6  0  0  0
  1 25  1  0  0  0  0
  1 37  1  0  0  0  0
  2  4  1  6  0  0  0
  2 26  1  0  0  0  0
  2 38  1  0  0  0  0
  3  1  1  1  0  0  0
  3 27  1  0  0  0  0
  3 39  1  0  0  0  0
  4  6  1  6  0  0  0
  4 28  1  0  0  0  0
  4 40  1  0  0  0  0
  5  3  1  1  0  0  0
  5 29  1  0  0  0  0
  5 41  1  0  0  0  0
  6  5  1  1  0  0  0
  6 30  1  0  0  0  0
  6 42  1  0  0  0  0
  7 31  2  0  0  0  0
  8 31  2  0  0  0  0
  9 32  2  0  0  0  0
 10 32  2  0  0  0  0
 11 33  2  0  0  0  0
 12 33  2  0  0  0  0
 13 34  2  0  0  0  0
 14 34  2  0  0  0  0
 15 35  2  0  0  0  0
 16 35  2  0  0  0  0
 17 36  2  0  0  0  0
 18 36  2  0  0  0  0
 19 31  1  0  0  0  0
 19 43  1  0  0  0  0
 20 32  1  0  0  0  0
 20 44  1  0  0  0  0
 21 33  1  0  0  0  0
 21 45  1  0  0  0  0
 22 34  1  0  0  0  0
 22 46  1  0  0  0  0
 23 35  1  0  0  0  0
 23 47  1  0  0  0  0
 24 36  1  0  0  0  0
 24 48  1  0  0  0  0
 25 31  1  0  0  0  0
 26 32  1  0  0  0  0
 27 33  1  0  0  0  0
 28 34  1  0  0  0  0
 29 35  1  0  0  0  0
 30 36  1  0  0  0  0
M  END
$$$$
DrugBank_6432
 OpenBabel01151909533D

 45 49  0  0  0  0  0  0  0  0999 V2000
   -0.8385   -7.3387    0.5297 C   0  0  0  0  0  0  0  0  0  0  0  0
   -0.7082   -7.3175   -0.8589 C   0  0  0  0  0  0  0  0  0  0  0  0
   -1.1001   -6.1574    1.2238 C   0  0  0  0  0  0  0  0  0  0  0  0
   -4.8281   -2.4914   -8.6187 C   0  0  0  0  0  0  0  0  0  0  0  0
   -0.8394   -6.1150   -1.5534 C   0  0  0  0  0  0  0  0  0  0  0  0
   -1.2314   -4.9549    0.5293 C   0  0  0  0  0  0  0  0  0  0  0  0
   -4.4475   -2.7730   -7.3113 C   0  0  0  0  0  0  0  0  0  0  0  0
   -3.9429   -2.8121   -9.6352 C   0  0  0  0  0  0  0  0  0  0  0  0
   -1.1326    0.6447   -2.5403 C   0  0  0  0  0  0  0  0  0  0  0  0
   -2.3981   -3.6404   -8.1500 C   0  0  0  0  0  0  0  0  0  0  0  0
   -1.1010   -4.9336   -0.8593 C   0  0  0  0  0  0  0  0  0  0  0  0
   -0.7939   -0.0807   -1.3925 C   0  0  0  0  0  0  0  0  0  0  0  0
   -3.2108   -3.3584   -7.0639 C   0  0  0  0  0  0  0  0  0  0  0  0
   -1.0518   -1.3935   -1.7149 C   0  0  0  0  0  0  0  0  0  0  0  0
   -1.7735   -3.7448   -2.9955 C   0  0  0  0  0  0  0  0  0  0  0  0
   -1.2408   -3.6518   -1.5996 C   0  0  0  0  0  0  0  0  0  0  0  0
   -1.8965   -2.5882   -3.6685 C   0  0  0  0  0  0  0  0  0  0  0  0
   -0.9645    0.1478    1.2115 C   0  0  0  0  0  0  0  0  0  0  0  0
   -1.0131    1.5368    0.6563 C   0  0  0  0  0  0  0  0  0  0  0  0
   -0.2589    0.4596   -0.0874 C   0  0  0  0  0  0  0  0  0  0  0  0
   -2.7713   -3.6752   -5.6637 C   0  0  0  0  0  0  0  0  0  0  0  0
   -2.7333   -3.3814   -9.4338 N   0  0  0  0  0  0  0  0  0  0  0  0
   -1.5753   -0.1290   -3.5295 N   0  0  0  0  0  0  0  0  0  0  0  0
   -0.9139   -2.5431   -1.0010 N   0  0  0  0  0  0  0  0  0  0  0  0
   -1.5286   -1.3953   -3.0264 N   0  0  0  0  0  0  0  0  0  0  0  0
   -2.3682   -2.4972   -4.9473 N   0  0  0  0  0  0  0  0  0  0  0  0
   -0.7363   -8.2750    1.0704 H   0  0  0  0  0  0  0  0  0  0  0  0
   -0.5042   -8.2373   -1.3991 H   0  0  0  0  0  0  0  0  0  0  0  0
   -1.2019   -6.1740    2.3050 H   0  0  0  0  0  0  0  0  0  0  0  0
   -5.7875   -2.0356   -8.8352 H   0  0  0  0  0  0  0  0  0  0  0  0
   -0.7359   -6.1098   -2.6354 H   0  0  0  0  0  0  0  0  0  0  0  0
   -1.4351   -4.0405    1.0806 H   0  0  0  0  0  0  0  0  0  0  0  0
   -5.1203   -2.5332   -6.4924 H   0  0  0  0  0  0  0  0  0  0  0  0
   -4.1927   -2.6122  -10.6720 H   0  0  0  0  0  0  0  0  0  0  0  0
   -1.0755    1.7114   -2.7044 H   0  0  0  0  0  0  0  0  0  0  0  0
   -1.4220   -4.0973   -8.0188 H   0  0  0  0  0  0  0  0  0  0  0  0
   -2.0348   -4.7081   -3.4161 H   0  0  0  0  0  0  0  0  0  0  0  0
   -0.3628   -0.0200    2.0980 H   0  0  0  0  0  0  0  0  0  0  0  0
   -1.8738   -0.4418    1.1750 H   0  0  0  0  0  0  0  0  0  0  0  0
   -1.9555    1.8819    0.2456 H   0  0  0  0  0  0  0  0  0  0  0  0
   -0.4445    2.3059    1.1675 H   0  0  0  0  0  0  0  0  0  0  0  0
    0.8434    0.5242   -0.0245 H   0  0  0  0  0  0  0  0  0  0  0  0
   -3.5833   -4.1501   -5.1023 H   0  0  0  0  0  0  0  0  0  0  0  0
   -1.9262   -4.3717   -5.6652 H   0  0  0  0  0  0  0  0  0  0  0  0
   -2.4154   -1.5893   -5.3427 H   0  0  0  0  0  0  0  0  0  0  0  0
  1  2  2  0  0  0  0
  1  3  1  0  0  0  0
  1 27  1  0  0  0  0
  2  5  1  0  0  0  0
  2 28  1  0  0  0  0
  3  6  2  0  0  0  0
  3 29  1  0  0  0  0
  4  7  2  0  0  0  0
  4  8  1  0  0  0  0
  4 30  1  0  0  0  0
  5 11  2  0  0  0  0
  5 31  1  0  0  0  0
  6 11  1  0  0  0  0
  6 32  1  0  0  0  0
  7 13  1  0  0  0  0
  7 33  1  0  0  0  0
  8 22  2  0  0  0  0
  8 34  1  0  0  0  0
  9 12  1  0  0  0  0
  9 23  2  0  0  0  0
  9 35  1  0  0  0  0
 10 13  2  0  0  0  0
 10 22  1  0  0  0  0
 10 36  1  0  0  0  0
 11 16  1  0  0  0  0
 12 14  2  0  0  0  0
 12 20  1  0  0  0  0
 13 21  1  0  0  0  0
 14 24  1  0  0  0  0
 14 25  1  0  0  0  0
 15 16  1  0  0  0  0
 15 17  2  0  0  0  0
 15 37  1  0  0  0  0
 16 24  2  0  0  0  0
 17 25  1  0  0  0  0
 17 26  1  0  0  0  0
 18 19  1  0  0  0  0
 18 20  1  0  0  0  0
 18 38  1  0  0  0  0
 18 39  1  0  0  0  0
 19 20  1  0  0  0  0
 19 40  1  0  0  0  0
 19 41  1  0  0  0  0
 20 42  1  0  0  0  0
 21 26  1  0  0  0  0
 21 43  1  0  0  0  0
 21 44  1  0  0  0  0
 23 25  1  0  0  0  0
 26 45  1  0  0  0  0
M  END
$$$$
DrugBank_6442
 OpenBabel01151909533D

 50 52  0  0  1  0  0  0  0  0999 V2000
   -5.5277   -4.9598    6.4409 C   0  0  0  0  0  0  0  0  0  0  0  0
   -4.8487   -4.0864    7.2905 C   0  0  0  0  0  0  0  0  0  0  0  0
   -4.8164   -5.8927    5.6863 C   0  0  0  0  0  0  0  0  0  0  0  0
    2.7957   -1.4744    1.2460 C   0  0  0  0  0  0  0  0  0  0  0  0
   -3.4584   -4.1459    7.3855 C   0  0  0  0  0  0  0  0  0  0  0  0
   -3.4260   -5.9522    5.7813 C   0  0  0  0  0  0  0  0  0  0  0  0
    1.9871   -0.7291    0.3887 C   0  0  0  0  0  0  0  0  0  0  0  0
    0.0828   -1.1798    1.8000 C   0  0  0  0  0  0  0  0  0  0  0  0
    2.2551   -2.0688    2.3949 C   0  0  0  0  0  0  0  0  0  0  0  0
    0.8859   -1.9325    2.6697 C   0  0  0  0  0  0  0  0  0  0  0  0
   -2.7470   -5.0788    6.6309 C   0  0  0  0  0  0  0  0  0  0  0  0
    0.6314   -0.5798    0.6668 C   0  0  0  0  0  0  0  0  0  0  0  0
    2.8810   -1.6701    5.4405 C   0  0  0  0  0  0  0  0  0  0  0  0
    0.6911   -4.2130    5.7230 C   0  0  0  0  0  0  0  0  0  0  0  0
    3.1324   -2.8946    3.2972 C   0  0  0  0  0  0  0  0  0  0  0  0
    0.2543   -2.5727    3.8773 C   0  0  0  0  0  0  0  0  0  0  0  0
    2.5903   -2.9787    4.7214 C   0  0  2  0  0  0  0  0  0  0  0  0
    4.6253   -0.4519    6.7274 C   0  0  0  0  0  0  0  0  0  0  0  0
   -1.2513   -5.1432    6.7324 C   0  0  0  0  0  0  0  0  0  0  0  0
    1.1691   -3.3276    4.7456 N   0  0  0  0  0  0  0  0  0  0  0  0
   -0.1980    0.1826   -0.2101 N   0  0  0  0  0  0  0  0  0  0  0  0
    4.1424   -1.6043    6.0009 N   0  0  0  0  0  0  0  0  0  0  0  0
    2.0223   -0.7966    5.4761 O   0  0  0  0  0  0  0  0  0  0  0  0
    1.4074   -4.8697    6.4763 O   0  0  0  0  0  0  0  0  0  0  0  0
   -1.8175   -1.8252   -0.4867 O   0  0  0  0  0  0  0  0  0  0  0  0
   -2.1627    0.2375   -1.8805 O   0  0  0  0  0  0  0  0  0  0  0  0
   -0.3029   -1.3226   -2.4004 O   0  0  0  0  0  0  0  0  0  0  0  0
   -0.6783   -4.2660    5.7561 O   0  0  0  0  0  0  0  0  0  0  0  0
   -1.2698   -0.7105   -1.2385 S   0  0  0  0  0  0  0  0  0  0  0  0
   -6.6104   -4.9142    6.3681 H   0  0  0  0  0  0  0  0  0  0  0  0
   -5.4025   -3.3606    7.8789 H   0  0  0  0  0  0  0  0  0  0  0  0
   -5.3448   -6.5736    5.0256 H   0  0  0  0  0  0  0  0  0  0  0  0
    3.8517   -1.5886    1.0143 H   0  0  0  0  0  0  0  0  0  0  0  0
   -2.9377   -3.4613    8.0499 H   0  0  0  0  0  0  0  0  0  0  0  0
   -2.8801   -6.6822    5.1896 H   0  0  0  0  0  0  0  0  0  0  0  0
    2.4250   -0.2714   -0.4945 H   0  0  0  0  0  0  0  0  0  0  0  0
   -0.9786   -1.0662    2.0115 H   0  0  0  0  0  0  0  0  0  0  0  0
    3.1941   -3.9031    2.8692 H   0  0  0  0  0  0  0  0  0  0  0  0
    4.1458   -2.4750    3.3167 H   0  0  0  0  0  0  0  0  0  0  0  0
   -0.1988   -1.7947    4.5040 H   0  0  0  0  0  0  0  0  0  0  0  0
   -0.5434   -3.2472    3.5452 H   0  0  0  0  0  0  0  0  0  0  0  0
    3.1854   -3.7395    5.2516 H   0  0  0  0  0  0  0  0  0  0  0  0
    5.1178    0.2441    6.0434 H   0  0  0  0  0  0  0  0  0  0  0  0
    5.3429   -0.7607    7.4923 H   0  0  0  0  0  0  0  0  0  0  0  0
    3.7933    0.0634    7.2150 H   0  0  0  0  0  0  0  0  0  0  0  0
   -0.9128   -4.8386    7.7286 H   0  0  0  0  0  0  0  0  0  0  0  0
   -0.8941   -6.1629    6.5529 H   0  0  0  0  0  0  0  0  0  0  0  0
    0.3015    0.9471   -0.6959 H   0  0  0  0  0  0  0  0  0  0  0  0
    4.7598   -2.4040    5.8973 H   0  0  0  0  0  0  0  0  0  0  0  0
    0.2515   -0.6619   -2.8785 H   0  0  0  0  0  0  0  0  0  0  0  0
  1  2  2  0  0  0  0
  1  3  1  0  0  0  0
  1 30  1  0  0  0  0
  2  5  1  0  0  0  0
  2 31  1  0  0  0  0
  3  6  2  0  0  0  0
  3 32  1  0  0  0  0
  4  7  2  0  0  0  0
  4  9  1  0  0  0  0
  4 33  1  0  0  0  0
  5 11  2  0  0  0  0
  5 34  1  0  0  0  0
  6 11  1  0  0  0  0
  6 35  1  0  0  0  0
  7 12  1  0  0  0  0
  7 36  1  0  0  0  0
  8 10  1  0  0  0  0
  8 12  2  0  0  0  0
  8 37  1  0  0  0  0
  9 10  2  0  0  0  0
  9 15  1  0  0  0  0
 10 16  1  0  0  0  0
 11 19  1  0  0  0  0
 12 21  1  0  0  0  0
 13 17  1  0  0  0  0
 13 22  1  0  0  0  0
 13 23  2  0  0  0  0
 14 20  1  0  0  0  0
 14 24  2  0  0  0  0
 14 28  1  0  0  0  0
 15 17  1  0  0  0  0
 15 38  1  0  0  0  0
 15 39  1  0  0  0  0
 16 20  1  0  0  0  0
 16 40  1  0  0  0  0
 16 41  1  0  0  0  0
 17 20  1  0  0  0  0
 17 42  1  1  0  0  0
 18 22  1  0  0  0  0
 18 43  1  0  0  0  0
 18 44  1  0  0  0  0
 18 45  1  0  0  0  0
 19 28  1  0  0  0  0
 19 46  1  0  0  0  0
 19 47  1  0  0  0  0
 21 29  1  0  0  0  0
 21 48  1  0  0  0  0
 22 49  1  0  0  0  0
 25 29  2  0  0  0  0
 26 29  2  0  0  0  0
 27 29  1  0  0  0  0
 27 50  1  0  0  0  0
M  END
$$$$
DrugBank_1465
 OpenBabel01151909533D

 15 14  0  0  1  0  0  0  0  0999 V2000
    0.1571   -0.0933    1.0790 C   0  0  0  0  0  0  0  0  0  0  0  0
    0.0735   -1.7938    3.0114 C   0  0  0  0  0  0  0  0  0  0  0  0
   -0.3862   -1.4223    1.5987 C   0  0  2  0  0  0  0  0  0  0  0  0
   -0.6953    0.3724    0.0363 O   0  0  0  0  0  0  0  0  0  0  0  0
   -0.0313   -2.4707    0.6961 O   0  0  0  0  0  0  0  0  0  0  0  0
    1.9026   -2.3249    4.8163 O   0  0  0  0  0  0  0  0  0  0  0  0
    1.8795   -1.9242    3.2061 S   0  0  0  0  0  0  0  0  0  0  0  0
    0.1695    0.6755    1.8575 H   0  0  0  0  0  0  0  0  0  0  0  0
    1.1625   -0.2154    0.6644 H   0  0  0  0  0  0  0  0  0  0  0  0
   -0.3613   -2.7558    3.3016 H   0  0  0  0  0  0  0  0  0  0  0  0
   -0.2706   -1.0369    3.7238 H   0  0  0  0  0  0  0  0  0  0  0  0
   -1.4819   -1.3836    1.5924 H   0  0  0  0  0  0  0  0  0  0  0  0
   -0.3232    1.2141   -0.2697 H   0  0  0  0  0  0  0  0  0  0  0  0
   -0.4303   -2.2434   -0.1571 H   0  0  0  0  0  0  0  0  0  0  0  0
    1.4811   -1.6138    5.3537 H   0  0  0  0  0  0  0  0  0  0  0  0
  1  3  1  0  0  0  0
  1  4  1  0  0  0  0
  1  8  1  0  0  0  0
  1  9  1  0  0  0  0
  2  3  1  0  0  0  0
  2  7  1  0  0  0  0
  2 10  1  0  0  0  0
  2 11  1  0  0  0  0
  3  5  1  0  0  0  0
  3 12  1  1  0  0  0
  4 13  1  0  0  0  0
  5 14  1  0  0  0  0
  6  7  1  0  0  0  0
  6 15  1  0  0  0  0
M  END
$$$$
DrugBank_1480
 OpenBabel01151909533D

 11 10  0  0  1  0  0  0  0  0999 V2000
    0.8719   -0.5290    0.4006 C   0  0  0  0  0  0  0  0  0  0  0  0
    2.5540   -0.5610    2.3257 C   0  0  0  0  0  0  0  0  0  0  0  0
    1.2565    0.0257    1.7670 C   0  0  2  0  0  0  0  0  0  0  0  0
    2.5040   -2.3281    2.5464 Cl  0  0  0  0  0  0  0  0  0  0  0  0
   -0.0979   -0.2068    2.9138 Cl  0  0  0  0  0  0  0  0  0  0  0  0
    0.7259   -1.6139    0.4186 H   0  0  0  0  0  0  0  0  0  0  0  0
   -0.0613   -0.0759    0.0481 H   0  0  0  0  0  0  0  0  0  0  0  0
    1.6476   -0.3036   -0.3389 H   0  0  0  0  0  0  0  0  0  0  0  0
    3.3873   -0.3470    1.6488 H   0  0  0  0  0  0  0  0  0  0  0  0
    2.7940   -0.1176    3.2976 H   0  0  0  0  0  0  0  0  0  0  0  0
    1.3857    1.1097    1.6751 H   0  0  0  0  0  0  0  0  0  0  0  0
  1  3  1  0  0  0  0
  1  6  1  0  0  0  0
  1  7  1  0  0  0  0
  1  8  1  0  0  0  0
  2  3  1  0  0  0  0
  2  4  1  0  0  0  0
  2  9  1  0  0  0  0
  2 10  1  0  0  0  0
  3  5  1  0  0  0  0
  3 11  1  6  0  0  0
M  END
$$$$
DrugBank_6466
 OpenBabel01151909533D

 26 27  0  0  1  0  0  0  0  0999 V2000
   -1.1556   -0.2508   -3.8653 C   0  0  0  0  0  0  0  0  0  0  0  0
   -2.0774    1.8033   -2.9889 C   0  0  0  0  0  0  0  0  0  0  0  0
   -0.9343    0.3724   -5.0934 C   0  0  0  0  0  0  0  0  0  0  0  0
   -1.8560    2.4266   -4.2170 C   0  0  0  0  0  0  0  0  0  0  0  0
   -1.7272    0.4646   -2.8131 C   0  0  0  0  0  0  0  0  0  0  0  0
   -1.2844    1.7111   -5.2692 C   0  0  0  0  0  0  0  0  0  0  0  0
   -3.7520   -1.1342    0.0230 C   0  0  0  0  0  0  0  0  0  0  0  0
   -3.8713   -3.2198   -0.7386 C   0  0  0  0  0  0  0  0  0  0  0  0
   -3.3386   -0.8532   -1.4155 C   0  0  1  0  0  0  0  0  0  0  0  0
   -1.9668   -0.2083   -1.4855 C   0  0  0  0  0  0  0  0  0  0  0  0
   -1.0458    2.3773   -6.5821 C   0  0  0  0  0  0  0  0  0  0  0  0
   -4.0429   -2.4588    0.2886 N   0  0  0  0  0  0  0  0  0  0  0  0
   -3.8193   -0.2380    0.8599 O   0  0  0  0  0  0  0  0  0  0  0  0
   -0.4802    1.5577   -7.5171 F   0  0  0  0  0  0  0  0  0  0  0  0
   -2.1839    2.8538   -7.1682 F   0  0  0  0  0  0  0  0  0  0  0  0
   -0.2087    3.4506   -6.4819 F   0  0  0  0  0  0  0  0  0  0  0  0
   -3.3309   -2.4835   -2.2125 S   0  0  0  0  0  0  0  0  0  0  0  0
   -4.1553   -4.9282   -0.7058 S   0  0  0  0  0  0  0  0  0  0  0  0
   -0.8802   -1.2944   -3.7375 H   0  0  0  0  0  0  0  0  0  0  0  0
   -2.5221    2.3685   -2.1740 H   0  0  0  0  0  0  0  0  0  0  0  0
   -0.4870   -0.1922   -5.9071 H   0  0  0  0  0  0  0  0  0  0  0  0
   -2.1319    3.4699   -4.3456 H   0  0  0  0  0  0  0  0  0  0  0  0
   -4.1023   -0.2265   -1.8856 H   0  0  0  0  0  0  0  0  0  0  0  0
   -1.1892   -0.9636   -1.3115 H   0  0  0  0  0  0  0  0  0  0  0  0
   -1.8573    0.5265   -0.6769 H   0  0  0  0  0  0  0  0  0  0  0  0
   -3.8316   -5.1828   -1.9802 H   0  0  0  0  0  0  0  0  0  0  0  0
  1  3  2  0  0  0  0
  1  5  1  0  0  0  0
  1 19  1  0  0  0  0
  2  4  1  0  0  0  0
  2  5  2  0  0  0  0
  2 20  1  0  0  0  0
  3  6  1  0  0  0  0
  3 21  1  0  0  0  0
  4  6  2  0  0  0  0
  4 22  1  0  0  0  0
  5 10  1  0  0  0  0
  6 11  1  0  0  0  0
  7  9  1  0  0  0  0
  7 12  1  0  0  0  0
  7 13  2  0  0  0  0
  8 12  2  0  0  0  0
  8 17  1  0  0  0  0
  8 18  1  0  0  0  0
  9 10  1  0  0  0  0
  9 17  1  0  0  0  0
  9 23  1  6  0  0  0
 10 24  1  0  0  0  0
 10 25  1  0  0  0  0
 11 14  1  0  0  0  0
 11 15  1  0  0  0  0
 11 16  1  0  0  0  0
 18 26  1  0  0  0  0
M  END
$$$$
DrugBank_4136
 OpenBabel01151909533D

 23 25  0  0  0  0  0  0  0  0999 V2000
    2.3119   -2.8929   -1.6305 C   0  0  0  0  0  0  0  0  0  0  0  0
    2.8541   -2.4841   -0.2879 C   0  0  0  0  0  0  0  0  0  0  0  0
   -0.2921    0.5130   -2.9584 C   0  0  0  0  0  0  0  0  0  0  0  0
    0.2973   -0.7478   -3.5300 C   0  0  0  0  0  0  0  0  0  0  0  0
    1.2653    0.3517    1.4535 C   0  0  0  0  0  0  0  0  0  0  0  0
    0.5638    1.3999    0.6334 C   0  0  0  0  0  0  0  0  0  0  0  0
    1.4916   -2.1584   -0.6798 N   0  0  0  0  0  0  0  0  0  0  0  0
   -0.0678   -0.6579   -2.1247 N   0  0  0  0  0  0  0  0  0  0  0  0
    0.4160   -0.0154    0.3310 N   0  0  0  0  0  0  0  0  0  0  0  0
    1.1620   -0.5798   -1.0278 P   0  0  0  0  0  0  0  0  0  0  0  0
    2.7025    0.4957   -1.6129 S   0  0  0  0  0  0  0  0  0  0  0  0
    2.6531   -2.3592   -2.5067 H   0  0  0  0  0  0  0  0  0  0  0  0
    2.0467   -3.9305   -1.7772 H   0  0  0  0  0  0  0  0  0  0  0  0
    2.9553   -3.2454    0.4729 H   0  0  0  0  0  0  0  0  0  0  0  0
    3.5658   -1.6711   -0.2468 H   0  0  0  0  0  0  0  0  0  0  0  0
    0.3598    1.3620   -2.8061 H   0  0  0  0  0  0  0  0  0  0  0  0
   -1.3250    0.7390   -3.1835 H   0  0  0  0  0  0  0  0  0  0  0  0
   -0.3372   -1.3740   -4.1415 H   0  0  0  0  0  0  0  0  0  0  0  0
    1.3518   -0.7601   -3.7683 H   0  0  0  0  0  0  0  0  0  0  0  0
    2.3324    0.2301    1.3283 H   0  0  0  0  0  0  0  0  0  0  0  0
    0.8715    0.1260    2.4346 H   0  0  0  0  0  0  0  0  0  0  0  0
   -0.3043    1.8826    1.0601 H   0  0  0  0  0  0  0  0  0  0  0  0
    1.1514    1.9945   -0.0523 H   0  0  0  0  0  0  0  0  0  0  0  0
  1  2  1  0  0  0  0
  1  7  1  0  0  0  0
  1 12  1  0  0  0  0
  1 13  1  0  0  0  0
  2  7  1  0  0  0  0
  2 14  1  0  0  0  0
  2 15  1  0  0  0  0
  3  4  1  0  0  0  0
  3  8  1  0  0  0  0
  3 16  1  0  0  0  0
  3 17  1  0  0  0  0
  4  8  1  0  0  0  0
  4 18  1  0  0  0  0
  4 19  1  0  0  0  0
  5  6  1  0  0  0  0
  5  9  1  0  0  0  0
  5 20  1  0  0  0  0
  5 21  1  0  0  0  0
  6  9  1  0  0  0  0
  6 22  1  0  0  0  0
  6 23  1  0  0  0  0
  7 10  1  0  0  0  0
  8 10  1  0  0  0  0
  9 10  1  0  0  0  0
 10 11  2  0  0  0  0
M  END
$$$$
DrugBank_4138
 OpenBabel01151909533D

 46 49  0  0  1  0  0  0  0  0999 V2000
   -1.9269   -0.1803    0.9467 C   0  0  0  0  0  0  0  0  0  0  0  0
   -0.7191    0.4635    0.6693 C   0  0  0  0  0  0  0  0  0  0  0  0
   -1.3722    2.2905    2.0886 C   0  0  0  0  0  0  0  0  0  0  0  0
   -2.8751    0.3890    1.8150 C   0  0  0  0  0  0  0  0  0  0  0  0
   -2.5958    1.6575    2.3697 C   0  0  0  0  0  0  0  0  0  0  0  0
   -0.4392    1.6966    1.2436 C   0  0  0  0  0  0  0  0  0  0  0  0
   -7.5416   -2.2886    4.0062 C   0  0  0  0  0  0  0  0  0  0  0  0
   -3.5467    2.3541    3.3125 C   0  0  0  0  0  0  0  0  0  0  0  0
   -8.2489   -1.1053    4.6454 C   0  0  0  0  0  0  0  0  0  0  0  0
   -4.9507    1.7565    3.3354 C   0  0  0  0  0  0  0  0  0  0  0  0
   -7.1491   -0.0344    4.7031 C   0  0  0  0  0  0  0  0  0  0  0  0
   -4.1795   -1.8473    2.0454 C   0  0  0  0  0  0  0  0  0  0  0  0
   -5.5269   -2.5101    2.3932 C   0  0  0  0  0  0  0  0  0  0  0  0
   -4.2135   -0.2943    2.0809 C   0  0  1  0  0  0  0  0  0  0  0  0
   -4.8640    0.2310    3.3984 C   0  0  2  0  0  0  0  0  0  0  0  0
   -6.2294   -0.4358    3.5558 C   0  0  1  0  0  0  0  0  0  0  0  0
   -6.0903   -1.9657    3.7013 C   0  0  1  0  0  0  0  0  0  0  0  0
   -5.2692   -2.4593    4.9069 C   0  0  0  0  0  0  0  0  0  0  0  0
   -8.0749   -3.3695    3.7938 O   0  0  0  0  0  0  0  0  0  0  0  0
    1.9908    0.9138    2.6531 O   0  0  0  0  0  0  0  0  0  0  0  0
    2.5779    0.8094    0.2119 O   0  0  0  0  0  0  0  0  0  0  0  0
    3.2045    2.8018    1.5621 O   0  0  0  0  0  0  0  0  0  0  0  0
    0.7382    2.3235    0.9776 O   0  0  0  0  0  0  0  0  0  0  0  0
    2.1480    1.5724    1.3694 S   0  0  0  0  0  0  0  0  0  0  0  0
   -2.1104   -1.1342    0.4614 H   0  0  0  0  0  0  0  0  0  0  0  0
   -0.0036   -0.0053   -0.0011 H   0  0  0  0  0  0  0  0  0  0  0  0
   -1.1490    3.2578    2.5343 H   0  0  0  0  0  0  0  0  0  0  0  0
   -3.1192    2.2986    4.3219 H   0  0  0  0  0  0  0  0  0  0  0  0
   -3.6229    3.4152    3.0458 H   0  0  0  0  0  0  0  0  0  0  0  0
   -9.0702   -0.7916    3.9947 H   0  0  0  0  0  0  0  0  0  0  0  0
   -8.6160   -1.3589    5.6420 H   0  0  0  0  0  0  0  0  0  0  0  0
   -5.4914    2.1600    4.1985 H   0  0  0  0  0  0  0  0  0  0  0  0
   -5.5033    2.0655    2.4388 H   0  0  0  0  0  0  0  0  0  0  0  0
   -7.5713    0.9670    4.5742 H   0  0  0  0  0  0  0  0  0  0  0  0
   -6.6283   -0.0551    5.6664 H   0  0  0  0  0  0  0  0  0  0  0  0
   -3.4019   -2.2133    2.7274 H   0  0  0  0  0  0  0  0  0  0  0  0
   -3.8979   -2.1967    1.0453 H   0  0  0  0  0  0  0  0  0  0  0  0
   -6.2365   -2.3328    1.5742 H   0  0  0  0  0  0  0  0  0  0  0  0
   -5.3989   -3.5981    2.4477 H   0  0  0  0  0  0  0  0  0  0  0  0
   -4.8602    0.0164    1.2454 H   0  0  0  0  0  0  0  0  0  0  0  0
   -4.2272   -0.0285    4.2541 H   0  0  0  0  0  0  0  0  0  0  0  0
   -6.7976   -0.2184    2.6346 H   0  0  0  0  0  0  0  0  0  0  0  0
   -4.2195   -2.2489    4.7335 H   0  0  0  0  0  0  0  0  0  0  0  0
   -5.4143   -3.5277    5.0236 H   0  0  0  0  0  0  0  0  0  0  0  0
   -5.6035   -1.9441    5.8008 H   0  0  0  0  0  0  0  0  0  0  0  0
    3.2705    3.4247    0.8007 H   0  0  0  0  0  0  0  0  0  0  0  0
  1  2  2  0  0  0  0
  1  4  1  0  0  0  0
  1 25  1  0  0  0  0
  2  6  1  0  0  0  0
  2 26  1  0  0  0  0
  3  5  1  0  0  0  0
  3  6  2  0  0  0  0
  3 27  1  0  0  0  0
  4  5  2  0  0  0  0
  4 14  1  0  0  0  0
  5  8  1  0  0  0  0
  6 23  1  0  0  0  0
  7  9  1  0  0  0  0
  7 17  1  0  0  0  0
  7 19  2  0  0  0  0
  8 10  1  0  0  0  0
  8 28  1  0  0  0  0
  8 29  1  0  0  0  0
  9 11  1  0  0  0  0
  9 30  1  0  0  0  0
  9 31  1  0  0  0  0
 10 15  1  0  0  0  0
 10 32  1  0  0  0  0
 10 33  1  0  0  0  0
 11 16  1  0  0  0  0
 11 34  1  0  0  0  0
 11 35  1  0  0  0  0
 12 13  1  0  0  0  0
 12 14  1  0  0  0  0
 12 36  1  0  0  0  0
 12 37  1  0  0  0  0
 13 17  1  0  0  0  0
 13 38  1  0  0  0  0
 13 39  1  0  0  0  0
 14 15  1  1  0  0  0
 14 40  1  0  0  0  0
 15 16  1  1  0  0  0
 15 41  1  0  0  0  0
 16 17  1  1  0  0  0
 16 42  1  0  0  0  0
 17 18  1  1  0  0  0
 18 43  1  0  0  0  0
 18 44  1  0  0  0  0
 18 45  1  0  0  0  0
 20 24  2  0  0  0  0
 21 24  2  0  0  0  0
 22 24  1  0  0  0  0
 22 46  1  0  0  0  0
 23 24  1  0  0  0  0
M  END
$$$$
DrugBank_6486
 OpenBabel01151909533D

 25 24  0  0  0  0  0  0  0  0999 V2000
   -1.0499   -2.9581   -2.3351 C   0  0  0  0  0  0  0  0  0  0  0  0
   -0.5232   -1.6345    0.7517 C   0  0  0  0  0  0  0  0  0  0  0  0
    0.4586   -0.6714    3.2521 C   0  0  0  0  0  0  0  0  0  0  0  0
   -1.8085    0.3742    3.5284 C   0  0  0  0  0  0  0  0  0  0  0  0
   -1.5951   -2.1225    3.3577 C   0  0  0  0  0  0  0  0  0  0  0  0
    1.1898   -1.9021   -2.0454 C   0  0  0  0  0  0  0  0  0  0  0  0
   -1.0255   -0.7790    2.9046 C   0  0  0  0  0  0  0  0  0  0  0  0
   -1.8282   -3.5024   -3.0017 N   0  0  0  0  0  0  0  0  0  0  0  0
   -0.7429   -1.4219   -0.5904 N   0  0  0  0  0  0  0  0  0  0  0  0
   -0.1433   -2.3292   -1.5636 N   0  0  0  0  0  0  0  0  0  0  0  0
    0.1502   -2.5428    1.2281 O   0  0  0  0  0  0  0  0  0  0  0  0
   -1.1691   -0.6790    1.4834 O   0  0  0  0  0  0  0  0  0  0  0  0
    1.0241   -1.4974    2.8061 H   0  0  0  0  0  0  0  0  0  0  0  0
    0.8875    0.2730    2.9014 H   0  0  0  0  0  0  0  0  0  0  0  0
    0.6126   -0.7405    4.3350 H   0  0  0  0  0  0  0  0  0  0  0  0
   -2.8738    0.3010    3.2817 H   0  0  0  0  0  0  0  0  0  0  0  0
   -1.4657    1.3374    3.1335 H   0  0  0  0  0  0  0  0  0  0  0  0
   -1.7053    0.3898    4.6182 H   0  0  0  0  0  0  0  0  0  0  0  0
   -2.6596   -2.1999    3.1086 H   0  0  0  0  0  0  0  0  0  0  0  0
   -1.0691   -2.9616    2.8911 H   0  0  0  0  0  0  0  0  0  0  0  0
   -1.5238   -2.2287    4.4463 H   0  0  0  0  0  0  0  0  0  0  0  0
    1.1366   -0.8868   -2.4470 H   0  0  0  0  0  0  0  0  0  0  0  0
    1.5401   -2.5743   -2.8335 H   0  0  0  0  0  0  0  0  0  0  0  0
    1.9116   -1.9185   -1.2244 H   0  0  0  0  0  0  0  0  0  0  0  0
   -1.3151   -0.6434   -0.8995 H   0  0  0  0  0  0  0  0  0  0  0  0
  1  8  3  0  0  0  0
  1 10  1  0  0  0  0
  2  9  1  0  0  0  0
  2 11  2  0  0  0  0
  2 12  1  0  0  0  0
  3  7  1  0  0  0  0
  3 13  1  0  0  0  0
  3 14  1  0  0  0  0
  3 15  1  0  0  0  0
  4  7  1  0  0  0  0
  4 16  1  0  0  0  0
  4 17  1  0  0  0  0
  4 18  1  0  0  0  0
  5  7  1  0  0  0  0
  5 19  1  0  0  0  0
  5 20  1  0  0  0  0
  5 21  1  0  0  0  0
  6 10  1  0  0  0  0
  6 22  1  0  0  0  0
  6 23  1  0  0  0  0
  6 24  1  0  0  0  0
  7 12  1  0  0  0  0
  9 10  1  0  0  0  0
  9 25  1  0  0  0  0
M  END
$$$$
DrugBank_4161
 OpenBabel01151909533D

 40 42  0  0  0  0  0  0  0  0999 V2000
   -3.0863    4.1983   -0.0540 C   0  0  0  0  0  0  0  0  0  0  0  0
   -2.5597    2.9832    2.0019 C   0  0  0  0  0  0  0  0  0  0  0  0
   -1.5280    2.3138   -0.0776 C   0  0  0  0  0  0  0  0  0  0  0  0
   -3.3602   -0.8654    4.1710 C   0  0  0  0  0  0  0  0  0  0  0  0
   -1.8759    1.9665    2.6685 C   0  0  0  0  0  0  0  0  0  0  0  0
   -0.8441    1.2971    0.5889 C   0  0  0  0  0  0  0  0  0  0  0  0
   -4.5618   -1.5137    3.8857 C   0  0  0  0  0  0  0  0  0  0  0  0
   -2.2231   -2.2655    2.5636 C   0  0  0  0  0  0  0  0  0  0  0  0
    2.1395    0.0516    2.6642 C   0  0  0  0  0  0  0  0  0  0  0  0
    1.1726   -1.4263    1.4033 C   0  0  0  0  0  0  0  0  0  0  0  0
   -2.3858    3.1568    0.6288 C   0  0  0  0  0  0  0  0  0  0  0  0
   -2.1908   -1.2412    3.5099 C   0  0  0  0  0  0  0  0  0  0  0  0
   -1.0181    1.1235    1.9620 C   0  0  0  0  0  0  0  0  0  0  0  0
   -4.5940   -2.5380    2.9394 C   0  0  0  0  0  0  0  0  0  0  0  0
   -3.4247   -2.9139    2.2783 C   0  0  0  0  0  0  0  0  0  0  0  0
   -0.8980   -0.5428    3.8180 C   0  0  0  0  0  0  0  0  0  0  0  0
   -3.6553    5.0442   -0.6086 N   0  0  0  0  0  0  0  0  0  0  0  0
    3.0853   -0.6606    2.0945 N   0  0  0  0  0  0  0  0  0  0  0  0
    2.4702   -1.6009    1.2923 N   0  0  0  0  0  0  0  0  0  0  0  0
    0.9194   -0.3961    2.2573 N   0  0  0  0  0  0  0  0  0  0  0  0
   -8.0597   -3.6232    1.4564 N   0  0  0  0  0  0  0  0  0  0  0  0
   -0.3268    0.0955    2.6360 N   0  0  0  0  0  0  0  0  0  0  0  0
   -6.6949   -1.5025    1.0293 O   0  0  0  0  0  0  0  0  0  0  0  0
   -7.8322   -1.8238    3.2599 O   0  0  0  0  0  0  0  0  0  0  0  0
   -5.7838   -3.1526    2.6846 O   0  0  0  0  0  0  0  0  0  0  0  0
   -7.1060   -2.3626    2.1242 S   0  0  0  0  0  0  0  0  0  0  0  0
   -3.4312   -4.3022    0.9879 Br  0  0  0  0  0  0  0  0  0  0  0  0
   -3.2249    3.6324    2.5663 H   0  0  0  0  0  0  0  0  0  0  0  0
   -1.3819    2.4366   -1.1482 H   0  0  0  0  0  0  0  0  0  0  0  0
   -3.3455   -0.0686    4.9101 H   0  0  0  0  0  0  0  0  0  0  0  0
   -2.0187    1.8400    3.7386 H   0  0  0  0  0  0  0  0  0  0  0  0
   -0.1781    0.6456    0.0289 H   0  0  0  0  0  0  0  0  0  0  0  0
   -5.4688   -1.2154    4.4047 H   0  0  0  0  0  0  0  0  0  0  0  0
   -1.3062   -2.5516    2.0526 H   0  0  0  0  0  0  0  0  0  0  0  0
    2.2776    0.8724    3.3537 H   0  0  0  0  0  0  0  0  0  0  0  0
    0.4017   -1.9970    0.9048 H   0  0  0  0  0  0  0  0  0  0  0  0
   -1.0487    0.2304    4.5792 H   0  0  0  0  0  0  0  0  0  0  0  0
   -0.1556   -1.2455    4.2107 H   0  0  0  0  0  0  0  0  0  0  0  0
   -7.5708   -4.3012    0.8578 H   0  0  0  0  0  0  0  0  0  0  0  0
   -8.9754   -3.3533    1.0752 H   0  0  0  0  0  0  0  0  0  0  0  0
  1 11  1  0  0  0  0
  1 17  3  0  0  0  0
  2  5  2  0  0  0  0
  2 11  1  0  0  0  0
  2 28  1  0  0  0  0
  3  6  1  0  0  0  0
  3 11  2  0  0  0  0
  3 29  1  0  0  0  0
  4  7  2  0  0  0  0
  4 12  1  0  0  0  0
  4 30  1  0  0  0  0
  5 13  1  0  0  0  0
  5 31  1  0  0  0  0
  6 13  2  0  0  0  0
  6 32  1  0  0  0  0
  7 14  1  0  0  0  0
  7 33  1  0  0  0  0
  8 12  2  0  0  0  0
  8 15  1  0  0  0  0
  8 34  1  0  0  0  0
  9 18  2  0  0  0  0
  9 20  1  0  0  0  0
  9 35  1  0  0  0  0
 10 19  2  0  0  0  0
 10 20  1  0  0  0  0
 10 36  1  0  0  0  0
 12 16  1  0  0  0  0
 13 22  1  0  0  0  0
 14 15  2  0  0  0  0
 14 25  1  0  0  0  0
 15 27  1  0  0  0  0
 16 22  1  0  0  0  0
 16 37  1  0  0  0  0
 16 38  1  0  0  0  0
 18 19  1  0  0  0  0
 20 22  1  0  0  0  0
 21 26  1  0  0  0  0
 21 39  1  0  0  0  0
 21 40  1  0  0  0  0
 23 26  2  0  0  0  0
 24 26  2  0  0  0  0
 25 26  1  0  0  0  0
M  END
$$$$
DrugBank_4162
 OpenBabel01151909533D

 40 42  0  0  0  0  0  0  0  0999 V2000
   -3.0863    4.1983   -0.0540 C   0  0  0  0  0  0  0  0  0  0  0  0
   -2.5597    2.9832    2.0019 C   0  0  0  0  0  0  0  0  0  0  0  0
   -1.5280    2.3138   -0.0776 C   0  0  0  0  0  0  0  0  0  0  0  0
   -3.3609   -0.8663    4.1703 C   0  0  0  0  0  0  0  0  0  0  0  0
   -2.2217   -2.2656    2.5636 C   0  0  0  0  0  0  0  0  0  0  0  0
   -1.8759    1.9665    2.6685 C   0  0  0  0  0  0  0  0  0  0  0  0
   -0.8441    1.2971    0.5889 C   0  0  0  0  0  0  0  0  0  0  0  0
   -4.5618   -1.5157    3.8844 C   0  0  0  0  0  0  0  0  0  0  0  0
   -3.4226   -2.9150    2.2777 C   0  0  0  0  0  0  0  0  0  0  0  0
    2.1395    0.0516    2.6642 C   0  0  0  0  0  0  0  0  0  0  0  0
    1.1726   -1.4263    1.4033 C   0  0  0  0  0  0  0  0  0  0  0  0
   -2.3858    3.1568    0.6288 C   0  0  0  0  0  0  0  0  0  0  0  0
   -2.1908   -1.2412    3.5099 C   0  0  0  0  0  0  0  0  0  0  0  0
   -1.0181    1.1235    1.9620 C   0  0  0  0  0  0  0  0  0  0  0  0
   -4.5926   -2.5400    2.9381 C   0  0  0  0  0  0  0  0  0  0  0  0
   -0.8980   -0.5428    3.8180 C   0  0  0  0  0  0  0  0  0  0  0  0
   -3.6553    5.0442   -0.6086 N   0  0  0  0  0  0  0  0  0  0  0  0
    3.0853   -0.6606    2.0945 N   0  0  0  0  0  0  0  0  0  0  0  0
    2.4702   -1.6009    1.2923 N   0  0  0  0  0  0  0  0  0  0  0  0
    0.9194   -0.3961    2.2573 N   0  0  0  0  0  0  0  0  0  0  0  0
   -7.8272   -3.9490    1.2233 N   0  0  0  0  0  0  0  0  0  0  0  0
   -0.3268    0.0955    2.6360 N   0  0  0  0  0  0  0  0  0  0  0  0
   -5.5830   -5.1740    1.1553 O   0  0  0  0  0  0  0  0  0  0  0  0
   -5.7675   -2.8567    0.1713 O   0  0  0  0  0  0  0  0  0  0  0  0
   -5.7643   -3.1744    2.6602 O   0  0  0  0  0  0  0  0  0  0  0  0
   -6.1160   -3.8243    1.1959 S   0  0  0  0  0  0  0  0  0  0  0  0
   -3.2249    3.6324    2.5663 H   0  0  0  0  0  0  0  0  0  0  0  0
   -1.3819    2.4366   -1.1482 H   0  0  0  0  0  0  0  0  0  0  0  0
   -3.3461   -0.0693    4.9089 H   0  0  0  0  0  0  0  0  0  0  0  0
   -1.3148   -2.5643    2.0441 H   0  0  0  0  0  0  0  0  0  0  0  0
   -2.0187    1.8400    3.7386 H   0  0  0  0  0  0  0  0  0  0  0  0
   -0.1781    0.6456    0.0289 H   0  0  0  0  0  0  0  0  0  0  0  0
   -5.4700   -1.2192    4.4024 H   0  0  0  0  0  0  0  0  0  0  0  0
   -3.4400   -3.7122    1.5400 H   0  0  0  0  0  0  0  0  0  0  0  0
    2.2776    0.8724    3.3537 H   0  0  0  0  0  0  0  0  0  0  0  0
    0.4017   -1.9970    0.9048 H   0  0  0  0  0  0  0  0  0  0  0  0
   -1.0487    0.2304    4.5792 H   0  0  0  0  0  0  0  0  0  0  0  0
   -0.1556   -1.2455    4.2107 H   0  0  0  0  0  0  0  0  0  0  0  0
   -8.2455   -4.3423    2.0762 H   0  0  0  0  0  0  0  0  0  0  0  0
   -8.2755   -4.3026    0.3685 H   0  0  0  0  0  0  0  0  0  0  0  0
  1 12  1  0  0  0  0
  1 17  3  0  0  0  0
  2  6  2  0  0  0  0
  2 12  1  0  0  0  0
  2 27  1  0  0  0  0
  3  7  1  0  0  0  0
  3 12  2  0  0  0  0
  3 28  1  0  0  0  0
  4  8  2  0  0  0  0
  4 13  1  0  0  0  0
  4 29  1  0  0  0  0
  5  9  1  0  0  0  0
  5 13  2  0  0  0  0
  5 30  1  0  0  0  0
  6 14  1  0  0  0  0
  6 31  1  0  0  0  0
  7 14  2  0  0  0  0
  7 32  1  0  0  0  0
  8 15  1  0  0  0  0
  8 33  1  0  0  0  0
  9 15  2  0  0  0  0
  9 34  1  0  0  0  0
 10 18  2  0  0  0  0
 10 20  1  0  0  0  0
 10 35  1  0  0  0  0
 11 19  2  0  0  0  0
 11 20  1  0  0  0  0
 11 36  1  0  0  0  0
 13 16  1  0  0  0  0
 14 22  1  0  0  0  0
 15 25  1  0  0  0  0
 16 22  1  0  0  0  0
 16 37  1  0  0  0  0
 16 38  1  0  0  0  0
 18 19  1  0  0  0  0
 20 22  1  0  0  0  0
 21 26  1  0  0  0  0
 21 39  1  0  0  0  0
 21 40  1  0  0  0  0
 23 26  2  0  0  0  0
 24 26  2  0  0  0  0
 25 26  1  0  0  0  0
M  END
$$$$
DrugBank_6509
 OpenBabel01151909533D

 45 47  0  0  1  0  0  0  0  0999 V2000
    2.9268   -1.4764   -7.2010 C   0  0  0  0  0  0  0  0  0  0  0  0
    2.9394   -2.5722   -6.3381 C   0  0  0  0  0  0  0  0  0  0  0  0
    2.0402   -0.4229   -6.9777 C   0  0  0  0  0  0  0  0  0  0  0  0
    2.0653   -2.6146   -5.2519 C   0  0  0  0  0  0  0  0  0  0  0  0
    1.1661   -0.4654   -5.8915 C   0  0  0  0  0  0  0  0  0  0  0  0
    1.1786   -1.5612   -5.0286 C   0  0  0  0  0  0  0  0  0  0  0  0
    0.6561   -0.8614   -0.1877 C   0  0  0  0  0  0  0  0  0  0  0  0
    4.1881    1.3946   -1.7641 C   0  0  0  0  0  0  0  0  0  0  0  0
    4.2983   -0.0019   -1.1451 C   0  0  0  0  0  0  0  0  0  0  0  0
    1.6676    1.6172   -2.0826 C   0  0  0  0  0  0  0  0  0  0  0  0
    1.8568   -0.7294   -1.0861 C   0  0  2  0  0  0  0  0  0  0  0  0
    2.8828    1.9668   -1.2001 C   0  0  1  0  0  0  0  0  0  0  0  0
    3.0409   -0.1425   -0.2772 C   0  0  2  0  0  0  0  0  0  0  0  0
    1.5457    0.1071   -2.3423 C   0  0  1  0  0  0  0  0  0  0  0  0
    3.5091    1.7872    1.1573 C   0  0  0  0  0  0  0  0  0  0  0  0
   -0.0868   -1.8572    1.8223 C   0  0  0  0  0  0  0  0  0  0  0  0
    2.6908    1.2502    0.0731 N   0  0  0  0  0  0  0  0  0  0  0  0
   -0.4254   -0.3329   -0.4073 O   0  0  0  0  0  0  0  0  0  0  0  0
    0.1259   -2.8181   -2.7542 O   0  0  0  0  0  0  0  0  0  0  0  0
   -1.4038   -1.3967   -4.2931 O   0  0  0  0  0  0  0  0  0  0  0  0
    0.9707   -1.6472    0.8812 O   0  0  0  0  0  0  0  0  0  0  0  0
    0.2615   -0.2118   -2.8642 O   0  0  0  0  0  0  0  0  0  0  0  0
    0.0752   -1.6148   -3.6574 P   0  0  2  0  0  0  0  0  0  0  0  0
    3.6075   -1.4435   -8.0467 H   0  0  0  0  0  0  0  0  0  0  0  0
    3.6295   -3.3925   -6.5121 H   0  0  0  0  0  0  0  0  0  0  0  0
    2.0307    0.4304   -7.6495 H   0  0  0  0  0  0  0  0  0  0  0  0
    2.0784   -3.4703   -4.5829 H   0  0  0  0  0  0  0  0  0  0  0  0
    0.4777    0.3575   -5.7215 H   0  0  0  0  0  0  0  0  0  0  0  0
    5.0450    2.0015   -1.4483 H   0  0  0  0  0  0  0  0  0  0  0  0
    4.1971    1.3581   -2.8583 H   0  0  0  0  0  0  0  0  0  0  0  0
    4.3762   -0.7817   -1.9096 H   0  0  0  0  0  0  0  0  0  0  0  0
    5.2025   -0.0571   -0.5273 H   0  0  0  0  0  0  0  0  0  0  0  0
    0.7462    1.9878   -1.6127 H   0  0  0  0  0  0  0  0  0  0  0  0
    1.7364    2.1417   -3.0440 H   0  0  0  0  0  0  0  0  0  0  0  0
    2.1004   -1.7535   -1.3987 H   0  0  0  0  0  0  0  0  0  0  0  0
    2.9297    3.0543   -1.0740 H   0  0  0  0  0  0  0  0  0  0  0  0
    3.2212   -0.7620    0.6094 H   0  0  0  0  0  0  0  0  0  0  0  0
    2.2678   -0.1655   -3.1218 H   0  0  0  0  0  0  0  0  0  0  0  0
    3.3311    1.2236    2.0769 H   0  0  0  0  0  0  0  0  0  0  0  0
    3.2603    2.8371    1.3343 H   0  0  0  0  0  0  0  0  0  0  0  0
    4.5696    1.7167    0.9010 H   0  0  0  0  0  0  0  0  0  0  0  0
    0.2687   -2.4962    2.6344 H   0  0  0  0  0  0  0  0  0  0  0  0
   -0.9355   -2.3274    1.3193 H   0  0  0  0  0  0  0  0  0  0  0  0
   -0.3965   -0.8921    2.2302 H   0  0  0  0  0  0  0  0  0  0  0  0
   -2.1606   -1.2528   -3.6858 H   0  0  0  0  0  0  0  0  0  0  0  0
  1  2  2  0  0  0  0
  1  3  1  0  0  0  0
  1 24  1  0  0  0  0
  2  4  1  0  0  0  0
  2 25  1  0  0  0  0
  3  5  2  0  0  0  0
  3 26  1  0  0  0  0
  4  6  2  0  0  0  0
  4 27  1  0  0  0  0
  5  6  1  0  0  0  0
  5 28  1  0  0  0  0
  6 23  1  0  0  0  0
  7 11  1  0  0  0  0
  7 18  2  0  0  0  0
  7 21  1  0  0  0  0
  8  9  1  0  0  0  0
  8 12  1  0  0  0  0
  8 29  1  0  0  0  0
  8 30  1  0  0  0  0
  9 13  1  0  0  0  0
  9 31  1  0  0  0  0
  9 32  1  0  0  0  0
 10 12  1  0  0  0  0
 10 14  1  0  0  0  0
 10 33  1  0  0  0  0
 10 34  1  0  0  0  0
 11 13  1  1  0  0  0
 11 35  1  0  0  0  0
 12 17  1  0  0  0  0
 12 36  1  1  0  0  0
 13 17  1  0  0  0  0
 13 37  1  1  0  0  0
 14 11  1  1  0  0  0
 14 22  1  0  0  0  0
 14 38  1  0  0  0  0
 15 17  1  0  0  0  0
 15 39  1  0  0  0  0
 15 40  1  0  0  0  0
 15 41  1  0  0  0  0
 16 21  1  0  0  0  0
 16 42  1  0  0  0  0
 16 43  1  0  0  0  0
 16 44  1  0  0  0  0
 20 23  1  0  0  0  0
 20 45  1  0  0  0  0
 22 23  1  0  0  0  0
 23 19  2  1  0  0  0
M  END
$$$$
DrugBank_6511
 OpenBabel01151909533D

 25 26  0  0  0  0  0  0  0  0999 V2000
    2.3033   -1.4338   -1.6235 C   0  0  0  0  0  0  0  0  0  0  0  0
   -1.7967    2.6643   -0.3828 C   0  0  0  0  0  0  0  0  0  0  0  0
   -1.5881    3.5939    0.6300 C   0  0  0  0  0  0  0  0  0  0  0  0
    0.4547    2.9919   -1.0760 C   0  0  0  0  0  0  0  0  0  0  0  0
   -0.7610    2.3520   -1.2563 C   0  0  0  0  0  0  0  0  0  0  0  0
   -0.3354    4.1780    0.7260 C   0  0  0  0  0  0  0  0  0  0  0  0
    0.1758   -0.7724   -1.7101 C   0  0  0  0  0  0  0  0  0  0  0  0
   -2.2218   -0.7364   -1.8223 C   0  0  0  0  0  0  0  0  0  0  0  0
   -1.9845   -1.9730   -0.9618 C   0  0  0  0  0  0  0  0  0  0  0  0
   -0.9544    1.3524   -2.3597 C   0  0  0  0  0  0  0  0  0  0  0  0
    3.0772   -2.2778   -1.4345 N   0  0  0  0  0  0  0  0  0  0  0  0
    0.6950    3.9001   -0.1039 N   0  0  0  0  0  0  0  0  0  0  0  0
    1.4176   -0.4525   -1.8440 N   0  0  0  0  0  0  0  0  0  0  0  0
   -0.9597   -0.0074   -1.8640 N   0  0  0  0  0  0  0  0  0  0  0  0
   -0.2474   -2.4289   -1.2654 S   0  0  0  0  0  0  0  0  0  0  0  0
    0.0129    5.3348    1.9438 Cl  0  0  0  0  0  0  0  0  0  0  0  0
   -2.7684    2.1890   -0.4840 H   0  0  0  0  0  0  0  0  0  0  0  0
   -2.3903    3.8443    1.3162 H   0  0  0  0  0  0  0  0  0  0  0  0
    1.3000    2.7884   -1.7264 H   0  0  0  0  0  0  0  0  0  0  0  0
   -2.5110   -1.0255   -2.8401 H   0  0  0  0  0  0  0  0  0  0  0  0
   -3.0294   -0.1276   -1.4014 H   0  0  0  0  0  0  0  0  0  0  0  0
   -2.0944   -1.7310    0.1002 H   0  0  0  0  0  0  0  0  0  0  0  0
   -2.6664   -2.7895   -1.2131 H   0  0  0  0  0  0  0  0  0  0  0  0
   -1.9045    1.5267   -2.8764 H   0  0  0  0  0  0  0  0  0  0  0  0
   -0.1581    1.4331   -3.1071 H   0  0  0  0  0  0  0  0  0  0  0  0
  1 11  3  0  0  0  0
  1 13  1  0  0  0  0
  2  3  2  0  0  0  0
  2  5  1  0  0  0  0
  2 17  1  0  0  0  0
  3  6  1  0  0  0  0
  3 18  1  0  0  0  0
  4  5  2  0  0  0  0
  4 12  1  0  0  0  0
  4 19  1  0  0  0  0
  5 10  1  0  0  0  0
  6 12  2  0  0  0  0
  6 16  1  0  0  0  0
  7 13  2  0  0  0  0
  7 14  1  0  0  0  0
  7 15  1  0  0  0  0
  8  9  1  0  0  0  0
  8 14  1  0  0  0  0
  8 20  1  0  0  0  0
  8 21  1  0  0  0  0
  9 15  1  0  0  0  0
  9 22  1  0  0  0  0
  9 23  1  0  0  0  0
 10 14  1  0  0  0  0
 10 24  1  0  0  0  0
 10 25  1  0  0  0  0
M  END
$$$$
DrugBank_1538
 OpenBabel01151909533D

 98100  0  0  1  0  0  0  0  0999 V2000
    4.5580    1.6474    0.5005 C   0  0  0  0  0  0  0  0  0  0  0  0
    3.2721    1.2577    0.1956 C   0  0  0  0  0  0  0  0  0  0  0  0
    3.4719    1.2575    2.3114 C   0  0  0  0  0  0  0  0  0  0  0  0
   -3.4891   -0.4993    2.9462 C   0  0  0  0  0  0  0  0  0  0  0  0
   -2.5457   -2.4800   -2.2321 C   0  0  0  0  0  0  0  0  0  0  0  0
   -3.0985   -1.4315    2.0621 C   0  0  0  0  0  0  0  0  0  0  0  0
   -1.6162   -3.0992   -2.9749 C   0  0  0  0  0  0  0  0  0  0  0  0
   -1.5518    0.9566    3.1916 C   0  0  0  0  0  0  0  0  0  0  0  0
    2.7218    1.0915   -1.1384 C   0  0  0  0  0  0  0  0  0  0  0  0
   -2.5703    0.2843    3.7637 C   0  0  0  0  0  0  0  0  0  0  0  0
   -2.7579   -2.8839   -0.8141 C   0  0  0  0  0  0  0  0  0  0  0  0
    2.0173    1.8558    4.1738 C   0  0  0  0  0  0  0  0  0  0  0  0
    0.7163   -0.6630   -2.8007 C   0  0  0  0  0  0  0  0  0  0  0  0
    3.3076    1.1695    3.7785 C   0  0  0  0  0  0  0  0  0  0  0  0
   -4.0402   -2.2364    1.2224 C   0  0  0  0  0  0  0  0  0  0  0  0
    0.7521    1.0069    4.1583 C   0  0  0  0  0  0  0  0  0  0  0  0
   -0.7487    2.1905   -1.1395 C   0  0  0  0  0  0  0  0  0  0  0  0
    0.3588    1.5896   -0.2948 C   0  0  0  0  0  0  0  0  0  0  0  0
   -1.2585   -2.8110   -4.4227 C   0  0  2  0  0  0  0  0  0  0  0  0
   -0.4891    1.8312    3.8078 C   0  0  2  0  0  0  0  0  0  0  0  0
    0.6753    0.8381   -2.5547 C   0  0  1  0  0  0  0  0  0  0  0  0
   -0.7751    1.3018   -2.3768 C   0  0  2  0  0  0  0  0  0  0  0  0
    0.2005   -2.2906   -4.5109 C   0  0  1  0  0  0  0  0  0  0  0  0
   -2.8743    0.2447    5.2335 C   0  0  0  0  0  0  0  0  0  0  0  0
   -2.2619   -1.9041   -5.1477 C   0  0  0  0  0  0  0  0  0  0  0  0
   -5.7505    4.3315   -6.3453 C   0  0  0  0  0  0  0  0  0  0  0  0
   -7.2477    3.6506   -3.3063 C   0  0  0  0  0  0  0  0  0  0  0  0
    2.1639   -1.7618   -5.9785 C   0  0  0  0  0  0  0  0  0  0  0  0
    0.6971   -3.7309   -6.5026 C   0  0  0  0  0  0  0  0  0  0  0  0
   -6.0055    2.9714   -5.7906 C   0  0  0  0  0  0  0  0  0  0  0  0
   -5.7810    3.7806   -3.5396 C   0  0  0  0  0  0  0  0  0  0  0  0
   -3.8808    2.8473   -4.6758 C   0  0  0  0  0  0  0  0  0  0  0  0
   -3.1411    2.1291   -3.5635 C   0  0  0  0  0  0  0  0  0  0  0  0
    0.7423   -2.3141   -5.9389 C   0  0  0  0  0  0  0  0  0  0  0  0
    2.6001    0.9819    1.3633 N   0  0  0  0  0  0  0  0  0  0  0  0
   -3.6796   -2.0685   -0.1752 N   0  0  0  0  0  0  0  0  0  0  0  0
    1.3320    1.1211   -1.2748 N   0  0  0  0  0  0  0  0  0  0  0  0
   -5.3071    2.7809   -4.5096 N   0  0  0  0  0  0  0  0  0  0  0  0
    3.4765    0.9140   -2.0951 O   0  0  0  0  0  0  0  0  0  0  0  0
   -2.1643   -3.8263   -0.2996 O   0  0  0  0  0  0  0  0  0  0  0  0
    2.0060    3.0442    4.4959 O   0  0  0  0  0  0  0  0  0  0  0  0
    1.0710   -1.5009   -1.9826 O   0  0  0  0  0  0  0  0  0  0  0  0
   -1.0666    1.3789   -4.9659 O   0  0  0  0  0  0  0  0  0  0  0  0
   -0.9505    3.5501   -3.6837 O   0  0  0  0  0  0  0  0  0  0  0  0
    4.6950    1.6625    1.8546 O   0  0  0  0  0  0  0  0  0  0  0  0
    0.2743   -0.9153   -4.0682 O   0  0  0  0  0  0  0  0  0  0  0  0
   -0.9484    2.5091    4.9717 O   0  0  0  0  0  0  0  0  0  0  0  0
   -1.3792    2.1681   -3.7892 S   0  0  0  0  0  0  0  0  0  0  0  0
    5.4230    1.9488   -0.0696 H   0  0  0  0  0  0  0  0  0  0  0  0
   -4.5522   -0.3057    3.0961 H   0  0  0  0  0  0  0  0  0  0  0  0
   -3.1682   -1.6956   -2.6506 H   0  0  0  0  0  0  0  0  0  0  0  0
   -2.0423   -1.6330    1.9218 H   0  0  0  0  0  0  0  0  0  0  0  0
   -1.0276   -3.9148   -2.4990 H   0  0  0  0  0  0  0  0  0  0  0  0
   -1.4579    0.8662    2.0998 H   0  0  0  0  0  0  0  0  0  0  0  0
    3.3063    0.1426    4.1193 H   0  0  0  0  0  0  0  0  0  0  0  0
    4.1305    1.6752    4.2827 H   0  0  0  0  0  0  0  0  0  0  0  0
   -3.9410   -3.3028    1.4642 H   0  0  0  0  0  0  0  0  0  0  0  0
   -5.0881   -1.9443    1.3773 H   0  0  0  0  0  0  0  0  0  0  0  0
    0.9027    0.2609    3.3816 H   0  0  0  0  0  0  0  0  0  0  0  0
    0.6408    0.4809    5.0949 H   0  0  0  0  0  0  0  0  0  0  0  0
   -1.7035    2.1047   -0.6059 H   0  0  0  0  0  0  0  0  0  0  0  0
   -0.5775    3.2500   -1.3533 H   0  0  0  0  0  0  0  0  0  0  0  0
    0.8318    2.3494    0.3289 H   0  0  0  0  0  0  0  0  0  0  0  0
    0.0050    0.7631    0.3208 H   0  0  0  0  0  0  0  0  0  0  0  0
   -1.2501   -3.7917   -4.9624 H   0  0  0  0  0  0  0  0  0  0  0  0
   -0.2046    2.5708    3.0613 H   0  0  0  0  0  0  0  0  0  0  0  0
    1.2230    1.3146   -3.3501 H   0  0  0  0  0  0  0  0  0  0  0  0
   -1.4815    0.4550   -2.2333 H   0  0  0  0  0  0  0  0  0  0  0  0
    0.8384   -2.9062   -3.8831 H   0  0  0  0  0  0  0  0  0  0  0  0
   -2.3404   -0.5846    5.6904 H   0  0  0  0  0  0  0  0  0  0  0  0
   -3.9442    0.1155    5.3781 H   0  0  0  0  0  0  0  0  0  0  0  0
   -2.5611    1.1793    5.6924 H   0  0  0  0  0  0  0  0  0  0  0  0
   -2.3025   -0.9356   -4.6544 H   0  0  0  0  0  0  0  0  0  0  0  0
   -3.2492   -2.3600   -5.1259 H   0  0  0  0  0  0  0  0  0  0  0  0
   -1.9516   -1.7682   -6.1813 H   0  0  0  0  0  0  0  0  0  0  0  0
   -6.1047    5.1068   -5.6573 H   0  0  0  0  0  0  0  0  0  0  0  0
   -4.6825    4.4804   -6.5381 H   0  0  0  0  0  0  0  0  0  0  0  0
   -6.2860    4.4519   -7.2946 H   0  0  0  0  0  0  0  0  0  0  0  0
   -7.8063    3.8020   -4.2364 H   0  0  0  0  0  0  0  0  0  0  0  0
   -7.4917    2.6651   -2.8950 H   0  0  0  0  0  0  0  0  0  0  0  0
   -7.5780    4.4093   -2.5867 H   0  0  0  0  0  0  0  0  0  0  0  0
    2.8459   -2.3694   -5.3737 H   0  0  0  0  0  0  0  0  0  0  0  0
    2.1947   -0.7362   -5.5959 H   0  0  0  0  0  0  0  0  0  0  0  0
    2.5438   -1.7474   -7.0056 H   0  0  0  0  0  0  0  0  0  0  0  0
    1.3228   -4.4140   -5.9180 H   0  0  0  0  0  0  0  0  0  0  0  0
    1.0546   -3.7461   -7.5377 H   0  0  0  0  0  0  0  0  0  0  0  0
   -0.3264   -4.1206   -6.4965 H   0  0  0  0  0  0  0  0  0  0  0  0
   -5.6494    2.2022   -6.4825 H   0  0  0  0  0  0  0  0  0  0  0  0
   -7.0742    2.8187   -5.6135 H   0  0  0  0  0  0  0  0  0  0  0  0
   -5.2295    3.6283   -2.6070 H   0  0  0  0  0  0  0  0  0  0  0  0
   -5.5373    4.7708   -3.9355 H   0  0  0  0  0  0  0  0  0  0  0  0
   -3.6030    3.9047   -4.7257 H   0  0  0  0  0  0  0  0  0  0  0  0
   -3.6513    2.3844   -5.6404 H   0  0  0  0  0  0  0  0  0  0  0  0
   -3.4229    1.0722   -3.5393 H   0  0  0  0  0  0  0  0  0  0  0  0
   -3.3486    2.5724   -2.5850 H   0  0  0  0  0  0  0  0  0  0  0  0
    0.1031   -1.6736   -6.5565 H   0  0  0  0  0  0  0  0  0  0  0  0
   -4.1196   -1.3248   -0.7054 H   0  0  0  0  0  0  0  0  0  0  0  0
   -0.2045    3.0416    5.2951 H   0  0  0  0  0  0  0  0  0  0  0  0
  1  2  2  0  0  0  0
  1 45  1  0  0  0  0
  1 49  1  0  0  0  0
  2  9  1  0  0  0  0
  2 35  1  0  0  0  0
  3 14  1  0  0  0  0
  3 35  2  0  0  0  0
  3 45  1  0  0  0  0
  4  6  2  0  0  0  0
  4 10  1  0  0  0  0
  4 50  1  0  0  0  0
  5  7  2  0  0  0  0
  5 11  1  0  0  0  0
  5 51  1  0  0  0  0
  6 15  1  0  0  0  0
  6 52  1  0  0  0  0
  7 19  1  0  0  0  0
  7 53  1  0  0  0  0
  8 10  2  0  0  0  0
  8 20  1  0  0  0  0
  8 54  1  0  0  0  0
  9 37  1  0  0  0  0
  9 39  2  0  0  0  0
 10 24  1  0  0  0  0
 11 36  1  0  0  0  0
 11 40  2  0  0  0  0
 12 14  1  0  0  0  0
 12 16  1  0  0  0  0
 12 41  2  0  0  0  0
 13 21  1  0  0  0  0
 13 42  2  0  0  0  0
 13 46  1  0  0  0  0
 14 55  1  0  0  0  0
 14 56  1  0  0  0  0
 15 36  1  0  0  0  0
 15 57  1  0  0  0  0
 15 58  1  0  0  0  0
 16 20  1  0  0  0  0
 16 59  1  0  0  0  0
 16 60  1  0  0  0  0
 17 18  1  0  0  0  0
 17 22  1  0  0  0  0
 17 61  1  0  0  0  0
 17 62  1  0  0  0  0
 18 37  1  0  0  0  0
 18 63  1  0  0  0  0
 18 64  1  0  0  0  0
 19 23  1  6  0  0  0
 19 25  1  0  0  0  0
 19 65  1  0  0  0  0
 20 47  1  0  0  0  0
 20 66  1  6  0  0  0
 21 22  1  1  0  0  0
 21 37  1  0  0  0  0
 21 67  1  0  0  0  0
 22 48  1  0  0  0  0
 22 68  1  1  0  0  0
 23 34  1  0  0  0  0
 23 46  1  0  0  0  0
 23 69  1  1  0  0  0
 24 70  1  0  0  0  0
 24 71  1  0  0  0  0
 24 72  1  0  0  0  0
 25 73  1  0  0  0  0
 25 74  1  0  0  0  0
 25 75  1  0  0  0  0
 26 30  1  0  0  0  0
 26 76  1  0  0  0  0
 26 77  1  0  0  0  0
 26 78  1  0  0  0  0
 27 31  1  0  0  0  0
 27 79  1  0  0  0  0
 27 80  1  0  0  0  0
 27 81  1  0  0  0  0
 28 34  1  0  0  0  0
 28 82  1  0  0  0  0
 28 83  1  0  0  0  0
 28 84  1  0  0  0  0
 29 34  1  0  0  0  0
 29 85  1  0  0  0  0
 29 86  1  0  0  0  0
 29 87  1  0  0  0  0
 30 38  1  0  0  0  0
 30 88  1  0  0  0  0
 30 89  1  0  0  0  0
 31 38  1  0  0  0  0
 31 90  1  0  0  0  0
 31 91  1  0  0  0  0
 32 33  1  0  0  0  0
 32 38  1  0  0  0  0
 32 92  1  0  0  0  0
 32 93  1  0  0  0  0
 33 48  1  0  0  0  0
 33 94  1  0  0  0  0
 33 95  1  0  0  0  0
 34 96  1  0  0  0  0
 36 97  1  0  0  0  0
 43 48  2  0  0  0  0
 44 48  2  0  0  0  0
 47 98  1  0  0  0  0
M  END
$$$$
DrugBank_4188
 OpenBabel01151909533D

 44 44  0  0  1  0  0  0  0  0999 V2000
   -2.4100   -7.4217   -2.3959 C   0  0  0  0  0  0  0  0  0  0  0  0
   -3.7274   -7.5207   -2.6565 C   0  0  0  0  0  0  0  0  0  0  0  0
   -4.3985   -8.8098   -2.6148 C   0  0  0  0  0  0  0  0  0  0  0  0
   -3.7118   -9.9051   -2.2626 C   0  0  0  0  0  0  0  0  0  0  0  0
   -1.6399   -8.6564   -2.0271 C   0  0  0  0  0  0  0  0  0  0  0  0
   -1.7537   -6.0992   -2.4638 C   0  0  0  0  0  0  0  0  0  0  0  0
    0.4050   -5.4423   -1.4776 C   0  0  0  0  0  0  0  0  0  0  0  0
   -3.8262   -2.8660   -0.4295 C   0  0  0  0  0  0  0  0  0  0  0  0
   -5.9763   -9.0085   -4.3026 C   0  0  0  0  0  0  0  0  0  0  0  0
   -4.8195  -11.4284   -0.9097 C   0  0  0  0  0  0  0  0  0  0  0  0
   -1.6757   -4.2382   -0.7189 C   0  0  0  0  0  0  0  0  0  0  0  0
   -4.9316   -5.2498    1.2857 C   0  0  0  0  0  0  0  0  0  0  0  0
   -1.0913   -5.5870   -1.1888 C   0  0  1  0  0  0  0  0  0  0  0  0
   -3.1989   -4.2642   -0.4121 C   0  0  1  0  0  0  0  0  0  0  0  0
   -3.4597   -5.0358    0.9164 C   0  0  1  0  0  0  0  0  0  0  0  0
   -2.3738   -9.8291   -1.9705 N   0  0  0  0  0  0  0  0  0  0  0  0
   -0.4354   -8.6035   -1.7883 O   0  0  0  0  0  0  0  0  0  0  0  0
   -1.7890   -5.4582   -3.5113 O   0  0  0  0  0  0  0  0  0  0  0  0
   -4.5023   -6.4287   -2.9934 O   0  0  0  0  0  0  0  0  0  0  0  0
   -5.7380   -8.8140   -2.9280 O   0  0  0  0  0  0  0  0  0  0  0  0
   -4.2917  -11.1475   -2.1862 O   0  0  0  0  0  0  0  0  0  0  0  0
   -5.8204   -6.1401    0.0256 Cl  0  0  0  0  0  0  0  0  0  0  0  0
   -2.6597   -4.2169    2.3057 Cl  0  0  0  0  0  0  0  0  0  0  0  0
    0.5805   -4.7068   -2.2696 H   0  0  0  0  0  0  0  0  0  0  0  0
    0.9522   -5.1204   -0.5844 H   0  0  0  0  0  0  0  0  0  0  0  0
    0.8382   -6.3940   -1.8043 H   0  0  0  0  0  0  0  0  0  0  0  0
   -3.4098   -2.2257    0.3529 H   0  0  0  0  0  0  0  0  0  0  0  0
   -4.9116   -2.9048   -0.2959 H   0  0  0  0  0  0  0  0  0  0  0  0
   -3.6207   -2.3582   -1.3760 H   0  0  0  0  0  0  0  0  0  0  0  0
   -7.0527   -9.0025   -4.4909 H   0  0  0  0  0  0  0  0  0  0  0  0
   -5.5460   -9.9628   -4.6164 H   0  0  0  0  0  0  0  0  0  0  0  0
   -5.5062   -8.1971   -4.8632 H   0  0  0  0  0  0  0  0  0  0  0  0
   -5.2656  -12.4259   -0.9105 H   0  0  0  0  0  0  0  0  0  0  0  0
   -5.5741  -10.6804   -0.6538 H   0  0  0  0  0  0  0  0  0  0  0  0
   -4.0113  -11.3937   -0.1754 H   0  0  0  0  0  0  0  0  0  0  0  0
   -1.5178   -3.5002   -1.5171 H   0  0  0  0  0  0  0  0  0  0  0  0
   -1.1203   -3.8704    0.1518 H   0  0  0  0  0  0  0  0  0  0  0  0
   -5.0506   -5.7959    2.2258 H   0  0  0  0  0  0  0  0  0  0  0  0
   -5.4412   -4.2870    1.3997 H   0  0  0  0  0  0  0  0  0  0  0  0
   -1.2222   -6.3300   -0.3929 H   0  0  0  0  0  0  0  0  0  0  0  0
   -3.6701   -4.8353   -1.2220 H   0  0  0  0  0  0  0  0  0  0  0  0
   -2.9815   -6.0204    0.8495 H   0  0  0  0  0  0  0  0  0  0  0  0
   -1.8942  -10.6814   -1.6972 H   0  0  0  0  0  0  0  0  0  0  0  0
   -5.4117   -6.7072   -3.1397 H   0  0  0  0  0  0  0  0  0  0  0  0
  1  2  2  0  0  0  0
  1  5  1  0  0  0  0
  1  6  1  0  0  0  0
  2  3  1  0  0  0  0
  2 19  1  0  0  0  0
  3  4  2  0  0  0  0
  3 20  1  0  0  0  0
  4 16  1  0  0  0  0
  4 21  1  0  0  0  0
  5 16  1  0  0  0  0
  5 17  2  0  0  0  0
  6 13  1  0  0  0  0
  6 18  2  0  0  0  0
  7 13  1  0  0  0  0
  7 24  1  0  0  0  0
  7 25  1  0  0  0  0
  7 26  1  0  0  0  0
  8 14  1  0  0  0  0
  8 27  1  0  0  0  0
  8 28  1  0  0  0  0
  8 29  1  0  0  0  0
  9 20  1  0  0  0  0
  9 30  1  0  0  0  0
  9 31  1  0  0  0  0
  9 32  1  0  0  0  0
 10 21  1  0  0  0  0
 10 33  1  0  0  0  0
 10 34  1  0  0  0  0
 10 35  1  0  0  0  0
 11 13  1  0  0  0  0
 11 14  1  0  0  0  0
 11 36  1  0  0  0  0
 11 37  1  0  0  0  0
 12 15  1  0  0  0  0
 12 22  1  0  0  0  0
 12 38  1  0  0  0  0
 12 39  1  0  0  0  0
 13 40  1  1  0  0  0
 14 15  1  0  0  0  0
 14 41  1  6  0  0  0
 15 23  1  0  0  0  0
 15 42  1  6  0  0  0
 16 43  1  0  0  0  0
 19 44  1  0  0  0  0
M  END
$$$$
DrugBank_6531
 OpenBabel01151909533D

 56 58  0  0  1  0  0  0  0  0999 V2000
    2.6510    3.5779    5.0505 C   0  0  0  0  0  0  0  0  0  0  0  0
    0.9960    1.8467    5.3678 C   0  0  0  0  0  0  0  0  0  0  0  0
    1.4892    2.9268    4.6359 C   0  0  0  0  0  0  0  0  0  0  0  0
    3.3197    3.1488    6.1969 C   0  0  0  0  0  0  0  0  0  0  0  0
    1.6647    1.4176    6.5143 C   0  0  0  0  0  0  0  0  0  0  0  0
    2.8266    2.0687    6.9289 C   0  0  0  0  0  0  0  0  0  0  0  0
    0.5286    0.5461   -0.0661 C   0  0  0  0  0  0  0  0  0  0  0  0
   -0.0033   -0.6453    0.2604 C   0  0  0  0  0  0  0  0  0  0  0  0
    1.2270    0.6366   -1.4062 C   0  0  0  0  0  0  0  0  0  0  0  0
    0.4492    1.7615    0.8171 C   0  0  0  0  0  0  0  0  0  0  0  0
   -0.7736   -0.8478    1.5419 C   0  0  0  0  0  0  0  0  0  0  0  0
   -1.1717    0.4573    2.2350 C   0  0  0  0  0  0  0  0  0  0  0  0
   -0.0009    1.4428    2.2537 C   0  0  2  0  0  0  0  0  0  0  0  0
    0.9086   -1.7218   -1.7754 C   0  0  1  0  0  0  0  0  0  0  0  0
    1.3617    4.5040    2.7237 C   0  0  0  0  0  0  0  0  0  0  0  0
    4.8892    4.8877    5.7860 C   0  0  0  0  0  0  0  0  0  0  0  0
   -0.0189   -0.2483    6.7289 C   0  0  0  0  0  0  0  0  0  0  0  0
    4.4863    0.6539    7.8772 C   0  0  0  0  0  0  0  0  0  0  0  0
   -0.3685    2.7216    3.0028 C   0  0  0  0  0  0  0  0  0  0  0  0
    1.4020   -0.3895   -2.1897 N   0  0  0  0  0  0  0  0  0  0  0  0
    0.1163   -1.7390   -0.5560 N   0  0  0  0  0  0  0  0  0  0  0  0
    1.7011    1.8582   -1.8367 N   0  0  0  0  0  0  0  0  0  0  0  0
    0.3741   -2.4230   -2.9569 N   0  0  0  0  0  0  0  0  0  0  0  0
    0.8135    3.3610    3.4744 N   0  0  0  0  0  0  0  0  0  0  0  0
    4.4534    3.7936    6.5905 O   0  0  0  0  0  0  0  0  0  0  0  0
    1.1731    0.3612    7.2203 O   0  0  0  0  0  0  0  0  0  0  0  0
    3.4796    1.6486    8.0496 O   0  0  0  0  0  0  0  0  0  0  0  0
    3.0392    4.4202    4.4823 H   0  0  0  0  0  0  0  0  0  0  0  0
    0.0905    1.3361    5.0482 H   0  0  0  0  0  0  0  0  0  0  0  0
    1.4305    2.2485    0.8726 H   0  0  0  0  0  0  0  0  0  0  0  0
   -0.2444    2.4770    0.3569 H   0  0  0  0  0  0  0  0  0  0  0  0
   -1.6853   -1.4254    1.3447 H   0  0  0  0  0  0  0  0  0  0  0  0
   -0.1576   -1.4466    2.2250 H   0  0  0  0  0  0  0  0  0  0  0  0
   -2.0269    0.9041    1.7106 H   0  0  0  0  0  0  0  0  0  0  0  0
   -1.5061    0.2372    3.2559 H   0  0  0  0  0  0  0  0  0  0  0  0
    0.8381    0.9726    2.7852 H   0  0  0  0  0  0  0  0  0  0  0  0
    1.8163   -2.2822   -1.5245 H   0  0  0  0  0  0  0  0  0  0  0  0
    0.7330    4.7199    1.8560 H   0  0  0  0  0  0  0  0  0  0  0  0
    2.3740    4.2783    2.3774 H   0  0  0  0  0  0  0  0  0  0  0  0
    1.3991    5.3917    3.3608 H   0  0  0  0  0  0  0  0  0  0  0  0
    5.8024    5.3120    6.2104 H   0  0  0  0  0  0  0  0  0  0  0  0
    4.1050    5.6480    5.7477 H   0  0  0  0  0  0  0  0  0  0  0  0
    5.0935    4.5265    4.7753 H   0  0  0  0  0  0  0  0  0  0  0  0
   -0.3022   -1.0763    7.3833 H   0  0  0  0  0  0  0  0  0  0  0  0
    0.1499   -0.6140    5.7129 H   0  0  0  0  0  0  0  0  0  0  0  0
   -0.8197    0.4949    6.7181 H   0  0  0  0  0  0  0  0  0  0  0  0
    4.9274    0.4090    8.8466 H   0  0  0  0  0  0  0  0  0  0  0  0
    5.2569    1.0279    7.1984 H   0  0  0  0  0  0  0  0  0  0  0  0
    4.0309   -0.2425    7.4498 H   0  0  0  0  0  0  0  0  0  0  0  0
   -0.9966    2.4625    3.8449 H   0  0  0  0  0  0  0  0  0  0  0  0
   -0.8909    3.3867    2.3283 H   0  0  0  0  0  0  0  0  0  0  0  0
   -0.2945   -2.6139   -0.2490 H   0  0  0  0  0  0  0  0  0  0  0  0
    2.1544    1.8944   -2.7157 H   0  0  0  0  0  0  0  0  0  0  0  0
    1.5657    2.6409   -1.2464 H   0  0  0  0  0  0  0  0  0  0  0  0
   -0.1795   -3.2288   -2.7966 H   0  0  0  0  0  0  0  0  0  0  0  0
    0.7544   -2.1830   -3.8396 H   0  0  0  0  0  0  0  0  0  0  0  0
  1  3  2  0  0  0  0
  1  4  1  0  0  0  0
  1 28  1  0  0  0  0
  2  3  1  0  0  0  0
  2  5  2  0  0  0  0
  2 29  1  0  0  0  0
  3 24  1  0  0  0  0
  4  6  2  0  0  0  0
  4 25  1  0  0  0  0
  5  6  1  0  0  0  0
  5 26  1  0  0  0  0
  6 27  1  0  0  0  0
  7  8  2  0  0  0  0
  7  9  1  0  0  0  0
  7 10  1  0  0  0  0
  8 11  1  0  0  0  0
  8 21  1  0  0  0  0
  9 20  2  0  0  0  0
  9 22  1  0  0  0  0
 10 13  1  0  0  0  0
 10 30  1  0  0  0  0
 10 31  1  0  0  0  0
 11 12  1  0  0  0  0
 11 32  1  0  0  0  0
 11 33  1  0  0  0  0
 12 13  1  0  0  0  0
 12 34  1  0  0  0  0
 12 35  1  0  0  0  0
 13 19  1  0  0  0  0
 13 36  1  1  0  0  0
 14 20  1  0  0  0  0
 14 21  1  0  0  0  0
 14 23  1  0  0  0  0
 14 37  1  1  0  0  0
 15 24  1  0  0  0  0
 15 38  1  0  0  0  0
 15 39  1  0  0  0  0
 15 40  1  0  0  0  0
 16 25  1  0  0  0  0
 16 41  1  0  0  0  0
 16 42  1  0  0  0  0
 16 43  1  0  0  0  0
 17 26  1  0  0  0  0
 17 44  1  0  0  0  0
 17 45  1  0  0  0  0
 17 46  1  0  0  0  0
 18 27  1  0  0  0  0
 18 47  1  0  0  0  0
 18 48  1  0  0  0  0
 18 49  1  0  0  0  0
 19 24  1  0  0  0  0
 19 50  1  0  0  0  0
 19 51  1  0  0  0  0
 21 52  1  0  0  0  0
 22 53  1  0  0  0  0
 22 54  1  0  0  0  0
 23 55  1  0  0  0  0
 23 56  1  0  0  0  0
M  END
$$$$
DrugBank_1564
 OpenBabel01151909533D

 34 36  0  0  1  0  0  0  0  0999 V2000
    0.0762   -0.4620   -1.2450 C   0  0  0  0  0  0  0  0  0  0  0  0
   -1.9334    1.1277    1.4800 C   0  0  0  0  0  0  0  0  0  0  0  0
   -1.2591    1.7370    2.5036 C   0  0  0  0  0  0  0  0  0  0  0  0
    0.7771   -1.4466   -0.6383 C   0  0  0  0  0  0  0  0  0  0  0  0
    0.2912   -0.1925   -2.7077 C   0  0  0  0  0  0  0  0  0  0  0  0
    1.8318   -1.9385   -2.7352 C   0  0  0  0  0  0  0  0  0  0  0  0
   -1.3117   -0.0788    0.7759 C   0  0  2  0  0  0  0  0  0  0  0  0
    0.1722    1.2780    2.8762 C   0  0  2  0  0  0  0  0  0  0  0  0
   -0.1371   -0.6916    1.5629 C   0  0  1  0  0  0  0  0  0  0  0  0
    1.2172    2.4014    2.9500 C   0  0  0  0  0  0  0  0  0  0  0  0
    1.1967   -0.9959   -3.3826 N   0  0  0  0  0  0  0  0  0  0  0  0
   -0.8490    0.3005   -0.5630 N   0  0  0  0  0  0  0  0  0  0  0  0
    1.6537   -2.1874   -1.3952 N   0  0  0  0  0  0  0  0  0  0  0  0
    0.5785   -1.6457    0.7212 N   0  0  0  0  0  0  0  0  0  0  0  0
    2.7404   -2.7701   -3.3367 N   0  0  0  0  0  0  0  0  0  0  0  0
    2.1579    4.6540   -0.0042 O   0  0  0  0  0  0  0  0  0  0  0  0
    3.7251    3.6754    1.7661 O   0  0  0  0  0  0  0  0  0  0  0  0
   -0.3321    0.7141   -3.2545 O   0  0  0  0  0  0  0  0  0  0  0  0
    1.8927    5.3349    2.4480 O   0  0  0  0  0  0  0  0  0  0  0  0
    0.7414    0.3617    1.9313 O   0  0  0  0  0  0  0  0  0  0  0  0
    1.2974    3.0123    1.6788 O   0  0  0  0  0  0  0  0  0  0  0  0
    2.3529    4.2680    1.4590 P   0  0  0  0  0  0  0  0  0  0  0  0
   -3.5667    1.4805    0.8836 S   0  0  0  0  0  0  0  0  0  0  0  0
   -1.8874    3.0081    3.5735 S   0  0  0  0  0  0  0  0  0  0  0  0
   -2.0587   -0.8777    0.6564 H   0  0  0  0  0  0  0  0  0  0  0  0
    0.1420    0.7625    3.8458 H   0  0  0  0  0  0  0  0  0  0  0  0
   -0.4877   -1.2069    2.4657 H   0  0  0  0  0  0  0  0  0  0  0  0
    2.1826    1.9802    3.2165 H   0  0  0  0  0  0  0  0  0  0  0  0
    0.9091    3.1340    3.6907 H   0  0  0  0  0  0  0  0  0  0  0  0
   -1.3850    0.9731   -1.1022 H   0  0  0  0  0  0  0  0  0  0  0  0
    2.1664   -2.9208   -0.9189 H   0  0  0  0  0  0  0  0  0  0  0  0
    1.1661   -2.3439    1.1642 H   0  0  0  0  0  0  0  0  0  0  0  0
    2.9208   -2.6476   -4.3061 H   0  0  0  0  0  0  0  0  0  0  0  0
    3.1841   -3.4637   -2.7806 H   0  0  0  0  0  0  0  0  0  0  0  0
  1  4  2  0  0  0  0
  1  5  1  0  0  0  0
  1 12  1  0  0  0  0
  2  3  2  0  0  0  0
  2  7  1  0  0  0  0
  2 23  1  0  0  0  0
  3  8  1  0  0  0  0
  3 24  1  0  0  0  0
  4 13  1  0  0  0  0
  4 14  1  0  0  0  0
  5 11  1  0  0  0  0
  5 18  2  0  0  0  0
  6 11  2  0  0  0  0
  6 13  1  0  0  0  0
  6 15  1  0  0  0  0
  7  9  1  1  0  0  0
  7 12  1  0  0  0  0
  7 25  1  0  0  0  0
  8 10  1  0  0  0  0
  8 20  1  0  0  0  0
  8 26  1  1  0  0  0
  9 14  1  0  0  0  0
  9 20  1  0  0  0  0
  9 27  1  1  0  0  0
 10 21  1  0  0  0  0
 10 28  1  0  0  0  0
 10 29  1  0  0  0  0
 12 30  1  0  0  0  0
 13 31  1  0  0  0  0
 14 32  1  0  0  0  0
 15 33  1  0  0  0  0
 15 34  1  0  0  0  0
 16 22  1  0  0  0  0
 17 22  1  0  0  0  0
 19 22  2  0  0  0  0
 21 22  1  0  0  0  0
M  END
$$$$
DrugBank_4193
 OpenBabel01151909533D

 21 20  0  0  0  0  0  0  0  0999 V2000
    0.1156   -0.2182   -0.5159 C   0  0  0  0  0  0  0  0  0  0  0  0
   -0.3452    0.3429    0.8309 C   0  0  0  0  0  0  0  0  0  0  0  0
    0.4385   -1.7118   -0.4142 C   0  0  0  0  0  0  0  0  0  0  0  0
   -0.7000    1.8267    0.7241 C   0  0  0  0  0  0  0  0  0  0  0  0
    0.8752   -2.2993   -1.7507 C   0  0  0  0  0  0  0  0  0  0  0  0
   -1.1951    2.3660    2.0553 C   0  0  0  0  0  0  0  0  0  0  0  0
    1.1513   -3.6848   -1.6042 O   0  0  0  0  0  0  0  0  0  0  0  0
   -1.5828    4.2669    1.8934 Br  0  0  0  0  0  0  0  0  0  0  0  0
    1.0005    0.3328   -0.8562 H   0  0  0  0  0  0  0  0  0  0  0  0
   -0.6698   -0.0637   -1.2658 H   0  0  0  0  0  0  0  0  0  0  0  0
    0.4485    0.2079    1.5757 H   0  0  0  0  0  0  0  0  0  0  0  0
   -1.2188   -0.2189    1.1834 H   0  0  0  0  0  0  0  0  0  0  0  0
    1.2396   -1.8518    0.3217 H   0  0  0  0  0  0  0  0  0  0  0  0
   -0.4426   -2.2559   -0.0551 H   0  0  0  0  0  0  0  0  0  0  0  0
    0.1810    2.3918    0.3949 H   0  0  0  0  0  0  0  0  0  0  0  0
   -1.4695    1.9652   -0.0458 H   0  0  0  0  0  0  0  0  0  0  0  0
    1.7733   -1.7975   -2.1249 H   0  0  0  0  0  0  0  0  0  0  0  0
    0.0753   -2.1844   -2.4891 H   0  0  0  0  0  0  0  0  0  0  0  0
   -0.4433    2.2665    2.8431 H   0  0  0  0  0  0  0  0  0  0  0  0
   -2.1236    1.8838    2.3727 H   0  0  0  0  0  0  0  0  0  0  0  0
    1.4237   -4.0110   -2.4774 H   0  0  0  0  0  0  0  0  0  0  0  0
  1  2  1  0  0  0  0
  1  3  1  0  0  0  0
  1  9  1  0  0  0  0
  1 10  1  0  0  0  0
  2  4  1  0  0  0  0
  2 11  1  0  0  0  0
  2 12  1  0  0  0  0
  3  5  1  0  0  0  0
  3 13  1  0  0  0  0
  3 14  1  0  0  0  0
  4  6  1  0  0  0  0
  4 15  1  0  0  0  0
  4 16  1  0  0  0  0
  5  7  1  0  0  0  0
  5 17  1  0  0  0  0
  5 18  1  0  0  0  0
  6  8  1  0  0  0  0
  6 19  1  0  0  0  0
  6 20  1  0  0  0  0
  7 21  1  0  0  0  0
M  END
$$$$
DrugBank_6533
 OpenBabel01151909533D

 64 64  0  0  1  0  0  0  0  0999 V2000
    1.2800   -1.9723    1.6199 C   0  0  0  0  0  0  0  0  0  0  0  0
    1.6956    0.5077    0.1613 C   0  0  0  0  0  0  0  0  0  0  0  0
    3.5127    3.4500   -0.6526 C   0  0  0  0  0  0  0  0  0  0  0  0
   -1.5711   -0.4169   -1.3555 C   0  0  0  0  0  0  0  0  0  0  0  0
   -0.2402    0.3156   -1.4636 C   0  0  0  0  0  0  0  0  0  0  0  0
   -1.8860   -0.3745    0.1380 C   0  0  1  0  0  0  0  0  0  0  0  0
   -0.5070   -0.4932    0.8003 C   0  0  1  0  0  0  0  0  0  0  0  0
   -0.8290   -4.0597    2.3144 C   0  0  0  0  0  0  0  0  0  0  0  0
    3.7033    0.8076   -3.0999 C   0  0  0  0  0  0  0  0  0  0  0  0
    4.6262   -0.0933   -0.9603 C   0  0  0  0  0  0  0  0  0  0  0  0
    3.3453    6.2788   -0.3060 C   0  0  0  0  0  0  0  0  0  0  0  0
    5.4173    6.0433    1.0942 C   0  0  0  0  0  0  0  0  0  0  0  0
    5.4734    5.4176   -1.3376 C   0  0  0  0  0  0  0  0  0  0  0  0
   -4.5864    0.4536    2.0813 C   0  0  0  0  0  0  0  0  0  0  0  0
   -1.1547   -2.6011    2.0168 C   0  0  0  0  0  0  0  0  0  0  0  0
   -0.1360   -1.9512    1.0726 C   0  0  2  0  0  0  0  0  0  0  0  0
    2.4642    1.2086   -0.9307 C   0  0  2  0  0  0  0  0  0  0  0  0
    3.3394    0.2344   -1.7258 C   0  0  0  0  0  0  0  0  0  0  0  0
    4.6182    5.4664   -0.0723 C   0  0  0  0  0  0  0  0  0  0  0  0
    0.4108    0.1097   -0.1728 N   0  0  0  0  0  0  0  0  0  0  0  0
    3.2226    2.1784   -0.1908 N   0  0  0  0  0  0  0  0  0  0  0  0
   -2.4932    0.9388    0.4803 N   0  0  0  0  0  0  0  0  0  0  0  0
    2.2376   -2.5059    1.0700 O   0  0  0  0  0  0  0  0  0  0  0  0
    2.2147    0.3174    1.2624 O   0  0  0  0  0  0  0  0  0  0  0  0
    3.1666    3.9096   -1.7360 O   0  0  0  0  0  0  0  0  0  0  0  0
   -4.7589    0.1905   -0.5170 O   0  0  0  0  0  0  0  0  0  0  0  0
   -4.5173    2.5000    0.4649 O   0  0  0  0  0  0  0  0  0  0  0  0
    4.2469    4.1286    0.2789 O   0  0  0  0  0  0  0  0  0  0  0  0
   -4.1880    1.0876    0.4685 S   0  0  0  0  0  0  0  0  0  0  0  0
    1.4145   -1.4554    2.5865 H   0  0  0  0  0  0  0  0  0  0  0  0
   -2.3424    0.0382   -1.9841 H   0  0  0  0  0  0  0  0  0  0  0  0
   -1.4427   -1.4578   -1.6754 H   0  0  0  0  0  0  0  0  0  0  0  0
    0.3812   -0.0673   -2.2778 H   0  0  0  0  0  0  0  0  0  0  0  0
   -0.3835    1.3926   -1.6041 H   0  0  0  0  0  0  0  0  0  0  0  0
   -2.5844   -1.1563    0.4396 H   0  0  0  0  0  0  0  0  0  0  0  0
   -0.4465    0.0672    1.7406 H   0  0  0  0  0  0  0  0  0  0  0  0
   -0.7586   -4.6543    1.3992 H   0  0  0  0  0  0  0  0  0  0  0  0
   -1.5942   -4.5075    2.9566 H   0  0  0  0  0  0  0  0  0  0  0  0
    0.1314   -4.1311    2.8347 H   0  0  0  0  0  0  0  0  0  0  0  0
    4.2510    1.7508   -3.0056 H   0  0  0  0  0  0  0  0  0  0  0  0
    2.8011    1.0111   -3.6868 H   0  0  0  0  0  0  0  0  0  0  0  0
    4.3258    0.1086   -3.6690 H   0  0  0  0  0  0  0  0  0  0  0  0
    5.2149    0.8105   -0.7693 H   0  0  0  0  0  0  0  0  0  0  0  0
    4.4072   -0.5666    0.0023 H   0  0  0  0  0  0  0  0  0  0  0  0
    5.2509   -0.7889   -1.5311 H   0  0  0  0  0  0  0  0  0  0  0  0
    2.7688    5.8678   -1.1425 H   0  0  0  0  0  0  0  0  0  0  0  0
    2.7065    6.2923    0.5831 H   0  0  0  0  0  0  0  0  0  0  0  0
    3.5858    7.3136   -0.5752 H   0  0  0  0  0  0  0  0  0  0  0  0
    6.3315    5.4635    1.2654 H   0  0  0  0  0  0  0  0  0  0  0  0
    4.8409    5.9929    2.0250 H   0  0  0  0  0  0  0  0  0  0  0  0
    5.6969    7.0867    0.9155 H   0  0  0  0  0  0  0  0  0  0  0  0
    6.3865    4.8350   -1.1702 H   0  0  0  0  0  0  0  0  0  0  0  0
    4.9281    4.9723   -2.1761 H   0  0  0  0  0  0  0  0  0  0  0  0
    5.7974    6.4236   -1.6279 H   0  0  0  0  0  0  0  0  0  0  0  0
   -5.6694    0.4928    2.2089 H   0  0  0  0  0  0  0  0  0  0  0  0
   -4.2310   -0.5760    2.1441 H   0  0  0  0  0  0  0  0  0  0  0  0
   -4.0907    1.0758    2.8279 H   0  0  0  0  0  0  0  0  0  0  0  0
   -1.2151   -2.0460    2.9608 H   0  0  0  0  0  0  0  0  0  0  0  0
   -2.1523   -2.5647    1.5619 H   0  0  0  0  0  0  0  0  0  0  0  0
   -0.1203   -2.4927    0.1198 H   0  0  0  0  0  0  0  0  0  0  0  0
    1.7546    1.7417   -1.5648 H   0  0  0  0  0  0  0  0  0  0  0  0
    2.7950   -0.7058   -1.8867 H   0  0  0  0  0  0  0  0  0  0  0  0
    3.5683    1.9136    0.7308 H   0  0  0  0  0  0  0  0  0  0  0  0
   -1.9764    1.4484    1.2019 H   0  0  0  0  0  0  0  0  0  0  0  0
  1 16  1  0  0  0  0
  1 23  2  0  0  0  0
  1 30  1  0  0  0  0
  2 17  1  0  0  0  0
  2 20  1  0  0  0  0
  2 24  2  0  0  0  0
  3 21  1  0  0  0  0
  3 25  2  0  0  0  0
  3 28  1  0  0  0  0
  4  5  1  0  0  0  0
  4  6  1  0  0  0  0
  4 31  1  0  0  0  0
  4 32  1  0  0  0  0
  5 20  1  0  0  0  0
  5 33  1  0  0  0  0
  5 34  1  0  0  0  0
  6  7  1  1  0  0  0
  6 22  1  0  0  0  0
  6 35  1  0  0  0  0
  7 16  1  0  0  0  0
  7 20  1  0  0  0  0
  7 36  1  1  0  0  0
  8 15  1  0  0  0  0
  8 37  1  0  0  0  0
  8 38  1  0  0  0  0
  8 39  1  0  0  0  0
  9 18  1  0  0  0  0
  9 40  1  0  0  0  0
  9 41  1  0  0  0  0
  9 42  1  0  0  0  0
 10 18  1  0  0  0  0
 10 43  1  0  0  0  0
 10 44  1  0  0  0  0
 10 45  1  0  0  0  0
 11 19  1  0  0  0  0
 11 46  1  0  0  0  0
 11 47  1  0  0  0  0
 11 48  1  0  0  0  0
 12 19  1  0  0  0  0
 12 49  1  0  0  0  0
 12 50  1  0  0  0  0
 12 51  1  0  0  0  0
 13 19  1  0  0  0  0
 13 52  1  0  0  0  0
 13 53  1  0  0  0  0
 13 54  1  0  0  0  0
 14 29  1  0  0  0  0
 14 55  1  0  0  0  0
 14 56  1  0  0  0  0
 14 57  1  0  0  0  0
 15 16  1  0  0  0  0
 15 58  1  0  0  0  0
 15 59  1  0  0  0  0
 16 60  1  6  0  0  0
 17 18  1  0  0  0  0
 17 21  1  0  0  0  0
 17 61  1  6  0  0  0
 18 62  1  0  0  0  0
 19 28  1  0  0  0  0
 21 63  1  0  0  0  0
 22 29  1  0  0  0  0
 22 64  1  0  0  0  0
 26 29  2  0  0  0  0
 27 29  2  0  0  0  0
M  END
$$$$
DrugBank_4196
 OpenBabel01151909533D

 26 27  0  0  0  0  0  0  0  0999 V2000
   -0.0479   -3.3542    0.5448 C   0  0  0  0  0  0  0  0  0  0  0  0
    3.4207   -2.9899   -0.7267 C   0  0  0  0  0  0  0  0  0  0  0  0
   -0.4966   -2.0341    0.4940 C   0  0  0  0  0  0  0  0  0  0  0  0
    3.8693   -4.3100   -0.6758 C   0  0  0  0  0  0  0  0  0  0  0  0
    1.7243   -5.0072    0.1848 C   0  0  0  0  0  0  0  0  0  0  0  0
    1.6484   -1.3369   -0.3665 C   0  0  0  0  0  0  0  0  0  0  0  0
    1.2560   -3.6839    0.1403 C   0  0  0  0  0  0  0  0  0  0  0  0
    2.1168   -2.6602   -0.3222 C   0  0  0  0  0  0  0  0  0  0  0  0
    0.3500   -1.0275    0.0392 C   0  0  0  0  0  0  0  0  0  0  0  0
    3.0228   -5.3167   -0.2210 C   0  0  0  0  0  0  0  0  0  0  0  0
    0.5813    1.3331   -1.0154 O   0  0  0  0  0  0  0  0  0  0  0  0
   -1.6632    0.5736   -0.1325 O   0  0  0  0  0  0  0  0  0  0  0  0
    2.4234   -7.8423   -0.2161 O   0  0  0  0  0  0  0  0  0  0  0  0
    4.6542   -7.0893   -1.1384 O   0  0  0  0  0  0  0  0  0  0  0  0
    0.1636    1.2618    1.4342 O   0  0  0  0  0  0  0  0  0  0  0  0
    4.2403   -7.1427    1.3297 O   0  0  0  0  0  0  0  0  0  0  0  0
   -0.2136    0.6241   -0.0232 S   0  0  0  0  0  0  0  0  0  0  0  0
    3.5860   -6.9683   -0.1585 S   0  0  0  0  0  0  0  0  0  0  0  0
   -0.7261   -4.1254    0.9041 H   0  0  0  0  0  0  0  0  0  0  0  0
    4.1001   -2.2200   -1.0862 H   0  0  0  0  0  0  0  0  0  0  0  0
   -1.5097   -1.8041    0.8129 H   0  0  0  0  0  0  0  0  0  0  0  0
    4.8822   -4.5410   -0.9946 H   0  0  0  0  0  0  0  0  0  0  0  0
    1.0707   -5.8025    0.5389 H   0  0  0  0  0  0  0  0  0  0  0  0
    2.3016   -0.5409   -0.7201 H   0  0  0  0  0  0  0  0  0  0  0  0
    1.1286    1.3447    1.6198 H   0  0  0  0  0  0  0  0  0  0  0  0
    3.6029   -7.0784    2.0794 H   0  0  0  0  0  0  0  0  0  0  0  0
  1  3  2  0  0  0  0
  1  7  1  0  0  0  0
  1 19  1  0  0  0  0
  2  4  2  0  0  0  0
  2  8  1  0  0  0  0
  2 20  1  0  0  0  0
  3  9  1  0  0  0  0
  3 21  1  0  0  0  0
  4 10  1  0  0  0  0
  4 22  1  0  0  0  0
  5  7  1  0  0  0  0
  5 10  2  0  0  0  0
  5 23  1  0  0  0  0
  6  8  1  0  0  0  0
  6  9  2  0  0  0  0
  6 24  1  0  0  0  0
  7  8  2  0  0  0  0
  9 17  1  0  0  0  0
 10 18  1  0  0  0  0
 11 17  2  0  0  0  0
 12 17  2  0  0  0  0
 13 18  2  0  0  0  0
 14 18  2  0  0  0  0
 15 17  1  0  0  0  0
 15 25  1  0  0  0  0
 16 18  1  0  0  0  0
 16 26  1  0  0  0  0
M  END
$$$$
DrugBank_1570
 OpenBabel01151909533D

 20 20  0  0  0  0  0  0  0  0999 V2000
    1.8851   -1.0363   -0.1124 C   0  0  0  0  0  0  0  0  0  0  0  0
    0.8066   -0.4630    0.5610 C   0  0  0  0  0  0  0  0  0  0  0  0
    2.8783   -1.6520    2.0022 C   0  0  0  0  0  0  0  0  0  0  0  0
    2.9210   -1.6309    0.6081 C   0  0  0  0  0  0  0  0  0  0  0  0
    0.7638   -0.4841    1.9551 C   0  0  0  0  0  0  0  0  0  0  0  0
    1.7997   -1.0786    2.6757 C   0  0  0  0  0  0  0  0  0  0  0  0
    4.0190   -2.2140   -0.0774 N   0  0  0  0  0  0  0  0  0  0  0  0
    4.0382   -2.1839   -1.3318 O   0  0  0  0  0  0  0  0  0  0  0  0
    4.9406   -2.7437    0.5895 O   0  0  0  0  0  0  0  0  0  0  0  0
    0.9319   -3.4845    4.0762 O   0  0  0  0  0  0  0  0  0  0  0  0
    3.1641   -2.9039    5.0740 O   0  0  0  0  0  0  0  0  0  0  0  0
   -0.2956    0.0785    2.6010 O   0  0  0  0  0  0  0  0  0  0  0  0
    1.0673   -2.2486    6.2400 O   0  0  0  0  0  0  0  0  0  0  0  0
    1.7695   -1.1055    4.0372 O   0  0  0  0  0  0  0  0  0  0  0  0
    1.7802   -2.5591    4.8047 S   0  0  0  0  0  0  0  0  0  0  0  0
    1.9052   -1.0135   -1.1993 H   0  0  0  0  0  0  0  0  0  0  0  0
    0.0028   -0.0019   -0.0064 H   0  0  0  0  0  0  0  0  0  0  0  0
    3.6826   -2.1139    2.5705 H   0  0  0  0  0  0  0  0  0  0  0  0
   -0.1887   -0.0111    3.5609 H   0  0  0  0  0  0  0  0  0  0  0  0
    1.4648   -1.5093    6.7574 H   0  0  0  0  0  0  0  0  0  0  0  0
  1  2  2  0  0  0  0
  1  4  1  0  0  0  0
  1 16  1  0  0  0  0
  2  5  1  0  0  0  0
  2 17  1  0  0  0  0
  3  4  2  0  0  0  0
  3  6  1  0  0  0  0
  3 18  1  0  0  0  0
  4  7  1  0  0  0  0
  5  6  2  0  0  0  0
  5 12  1  0  0  0  0
  6 14  1  0  0  0  0
  7  8  1  0  0  0  0
  7  9  2  0  0  0  0
 10 15  2  0  0  0  0
 11 15  2  0  0  0  0
 12 19  1  0  0  0  0
 13 15  1  0  0  0  0
 13 20  1  0  0  0  0
 14 15  1  0  0  0  0
M  END
$$$$
DrugBank_1586
 OpenBabel01151909533D

 28 28  0  0  1  0  0  0  0  0999 V2000
   -1.7081   -0.0228    1.3207 C   0  0  2  0  0  0  0  0  0  0  0  0
   -0.3325    0.5067    0.9149 C   0  0  2  0  0  0  0  0  0  0  0  0
   -1.6124   -1.4446    1.8743 C   0  0  1  0  0  0  0  0  0  0  0  0
    0.6841    0.2942    2.0390 C   0  0  2  0  0  0  0  0  0  0  0  0
   -0.5064   -1.5598    2.9232 C   0  0  2  0  0  0  0  0  0  0  0  0
    2.0951    0.7014    1.6260 C   0  0  0  0  0  0  0  0  0  0  0  0
   -3.6825    2.0720    0.8768 O   0  0  0  0  0  0  0  0  0  0  0  0
   -2.3910    2.0232   -1.2810 O   0  0  0  0  0  0  0  0  0  0  0  0
    0.7321   -1.0878    2.3977 O   0  0  0  0  0  0  0  0  0  0  0  0
   -0.4633    1.8949    0.6192 O   0  0  0  0  0  0  0  0  0  0  0  0
   -2.8667   -1.7814    2.4653 O   0  0  0  0  0  0  0  0  0  0  0  0
   -0.3868   -2.9355    3.2830 O   0  0  0  0  0  0  0  0  0  0  0  0
    2.9657    0.4841    2.7213 O   0  0  0  0  0  0  0  0  0  0  0  0
   -4.5944    0.8676   -1.1007 O   0  0  0  0  0  0  0  0  0  0  0  0
   -2.5518   -0.0238    0.1676 O   0  0  0  0  0  0  0  0  0  0  0  0
   -3.2537    1.3665   -0.3165 S   0  0  0  0  0  0  0  0  0  0  0  0
   -2.1795    0.6498    2.0483 H   0  0  0  0  0  0  0  0  0  0  0  0
   -0.0113   -0.0024   -0.0030 H   0  0  0  0  0  0  0  0  0  0  0  0
   -1.4443   -2.1540    1.0542 H   0  0  0  0  0  0  0  0  0  0  0  0
    0.4116    0.8883    2.9213 H   0  0  0  0  0  0  0  0  0  0  0  0
   -0.7689   -1.0046    3.8325 H   0  0  0  0  0  0  0  0  0  0  0  0
    2.1134    1.7571    1.3552 H   0  0  0  0  0  0  0  0  0  0  0  0
    2.4238    0.0987    0.7793 H   0  0  0  0  0  0  0  0  0  0  0  0
   -0.7844    2.3207    1.4291 H   0  0  0  0  0  0  0  0  0  0  0  0
   -2.7759   -2.6843    2.8061 H   0  0  0  0  0  0  0  0  0  0  0  0
    0.3177   -2.9852    3.9468 H   0  0  0  0  0  0  0  0  0  0  0  0
    3.8563    0.7499    2.4352 H   0  0  0  0  0  0  0  0  0  0  0  0
   -4.4459    0.2317   -1.8388 H   0  0  0  0  0  0  0  0  0  0  0  0
  1  2  1  6  0  0  0
  1 15  1  0  0  0  0
  1 17  1  0  0  0  0
  2  4  1  1  0  0  0
  2 10  1  0  0  0  0
  2 18  1  0  0  0  0
  3  1  1  6  0  0  0
  3 11  1  0  0  0  0
  3 19  1  0  0  0  0
  4  6  1  0  0  0  0
  4  9  1  0  0  0  0
  4 20  1  1  0  0  0
  5  3  1  6  0  0  0
  5  9  1  0  0  0  0
  5 12  1  0  0  0  0
  5 21  1  0  0  0  0
  6 13  1  0  0  0  0
  6 22  1  0  0  0  0
  6 23  1  0  0  0  0
  7 16  2  0  0  0  0
  8 16  2  0  0  0  0
 10 24  1  0  0  0  0
 11 25  1  0  0  0  0
 12 26  1  0  0  0  0
 13 27  1  0  0  0  0
 14 16  1  0  0  0  0
 14 28  1  0  0  0  0
 15 16  1  0  0  0  0
M  END
$$$$
DrugBank_4215
 OpenBabel01151909533D

 47 48  0  0  1  0  0  0  0  0999 V2000
    5.9994    4.4238   -4.7483 C   0  0  0  0  0  0  0  0  0  0  0  0
    6.5484    3.8774   -3.5883 C   0  0  0  0  0  0  0  0  0  0  0  0
    4.6480    4.2336   -5.0369 C   0  0  0  0  0  0  0  0  0  0  0  0
    5.7461    3.1407   -2.7169 C   0  0  0  0  0  0  0  0  0  0  0  0
    3.8457    3.4969   -4.1655 C   0  0  0  0  0  0  0  0  0  0  0  0
    4.3947    2.9505   -3.0055 C   0  0  0  0  0  0  0  0  0  0  0  0
    3.5071    0.6744   -2.4023 C   0  0  0  0  0  0  0  0  0  0  0  0
    1.5513   -0.6733   -0.0816 C   0  0  0  0  0  0  0  0  0  0  0  0
    0.8877   -0.4609    1.2867 C   0  0  1  0  0  0  0  0  0  0  0  0
   -0.6441   -0.4611    1.1531 C   0  0  2  0  0  0  0  0  0  0  0  0
   -1.1243    0.5573    0.1165 C   0  0  1  0  0  0  0  0  0  0  0  0
   -0.4317    0.3948   -1.2405 C   0  0  2  0  0  0  0  0  0  0  0  0
    1.0941    0.3785   -1.0947 C   0  0  2  0  0  0  0  0  0  0  0  0
    3.5258    2.1531   -2.0630 C   0  0  0  0  0  0  0  0  0  0  0  0
    1.3740   -1.5265    2.2738 C   0  0  0  0  0  0  0  0  0  0  0  0
    4.5422   -0.1031   -2.4669 N   0  0  0  0  0  0  0  0  0  0  0  0
    6.1279   -2.4021   -1.5888 O   0  0  0  0  0  0  0  0  0  0  0  0
    6.2265   -2.0587   -4.0850 O   0  0  0  0  0  0  0  0  0  0  0  0
   -1.2403   -0.1122    2.4041 O   0  0  0  0  0  0  0  0  0  0  0  0
   -2.5320    0.3690   -0.0638 O   0  0  0  0  0  0  0  0  0  0  0  0
   -0.8306    1.5041   -2.0492 O   0  0  0  0  0  0  0  0  0  0  0  0
    2.7791   -1.4170    2.3902 O   0  0  0  0  0  0  0  0  0  0  0  0
    4.8058   -3.8578   -3.1149 O   0  0  0  0  0  0  0  0  0  0  0  0
    4.1782   -1.4085   -2.8042 O   0  0  0  0  0  0  0  0  0  0  0  0
    1.8958    0.0304   -2.7044 S   0  0  0  0  0  0  0  0  0  0  0  0
    5.4790   -2.3907   -2.8865 S   0  0  0  0  0  0  0  0  0  0  0  0
    6.6239    4.9985   -5.4260 H   0  0  0  0  0  0  0  0  0  0  0  0
    7.6004    4.0263   -3.3629 H   0  0  0  0  0  0  0  0  0  0  0  0
    4.2199    4.6598   -5.9394 H   0  0  0  0  0  0  0  0  0  0  0  0
    6.1825    2.7185   -1.8156 H   0  0  0  0  0  0  0  0  0  0  0  0
    2.7938    3.3538   -4.3986 H   0  0  0  0  0  0  0  0  0  0  0  0
    2.6417   -0.6284    0.0385 H   0  0  0  0  0  0  0  0  0  0  0  0
    1.3105   -1.6821   -0.4447 H   0  0  0  0  0  0  0  0  0  0  0  0
    1.2071    0.5132    1.6849 H   0  0  0  0  0  0  0  0  0  0  0  0
   -1.0111   -1.4607    0.8915 H   0  0  0  0  0  0  0  0  0  0  0  0
   -0.9988    1.5781    0.4988 H   0  0  0  0  0  0  0  0  0  0  0  0
   -0.8011   -0.5162   -1.7291 H   0  0  0  0  0  0  0  0  0  0  0  0
    1.4460    1.3694   -0.7834 H   0  0  0  0  0  0  0  0  0  0  0  0
    2.5109    2.5694   -2.0786 H   0  0  0  0  0  0  0  0  0  0  0  0
    3.8715    2.2747   -1.0290 H   0  0  0  0  0  0  0  0  0  0  0  0
    1.1155   -2.5157    1.9016 H   0  0  0  0  0  0  0  0  0  0  0  0
    0.9142   -1.3625    3.2462 H   0  0  0  0  0  0  0  0  0  0  0  0
   -2.1986   -0.1277    2.2631 H   0  0  0  0  0  0  0  0  0  0  0  0
   -2.8098    1.0226   -0.7215 H   0  0  0  0  0  0  0  0  0  0  0  0
   -0.3876    1.3912   -2.9031 H   0  0  0  0  0  0  0  0  0  0  0  0
    3.0693   -2.0999    3.0196 H   0  0  0  0  0  0  0  0  0  0  0  0
    4.1861   -3.9231   -3.8790 H   0  0  0  0  0  0  0  0  0  0  0  0
  1  2  2  0  0  0  0
  1  3  1  0  0  0  0
  1 27  1  0  0  0  0
  2  4  1  0  0  0  0
  2 28  1  0  0  0  0
  3  5  2  0  0  0  0
  3 29  1  0  0  0  0
  4  6  2  0  0  0  0
  4 30  1  0  0  0  0
  5  6  1  0  0  0  0
  5 31  1  0  0  0  0
  6 14  1  0  0  0  0
  7 14  1  0  0  0  0
  7 16  2  0  0  0  0
  7 25  1  0  0  0  0
  8  9  1  0  0  0  0
  8 13  1  0  0  0  0
  8 32  1  0  0  0  0
  8 33  1  0  0  0  0
  9 10  1  6  0  0  0
  9 15  1  0  0  0  0
  9 34  1  0  0  0  0
 10 11  1  6  0  0  0
 10 19  1  0  0  0  0
 10 35  1  0  0  0  0
 11 12  1  6  0  0  0
 11 20  1  0  0  0  0
 11 36  1  0  0  0  0
 12 13  1  1  0  0  0
 12 21  1  0  0  0  0
 12 37  1  0  0  0  0
 13 25  1  0  0  0  0
 13 38  1  1  0  0  0
 14 39  1  0  0  0  0
 14 40  1  0  0  0  0
 15 22  1  0  0  0  0
 15 41  1  0  0  0  0
 15 42  1  0  0  0  0
 16 24  1  0  0  0  0
 17 26  2  0  0  0  0
 18 26  2  0  0  0  0
 19 43  1  0  0  0  0
 20 44  1  0  0  0  0
 21 45  1  0  0  0  0
 22 46  1  0  0  0  0
 23 26  1  0  0  0  0
 23 47  1  0  0  0  0
 24 26  1  0  0  0  0
M  END
$$$$
DrugBank_4217
 OpenBabel01151909533D

152152  0  0  1  0  0  0  0  0999 V2000
   23.1392   22.1165   -9.3014 C   0  0  0  0  0  0  0  0  0  0  0  0
   22.5110   21.1134   -9.9334 C   0  0  0  0  0  0  0  0  0  0  0  0
   14.1063    7.2366    2.1952 C   0  0  0  0  0  0  0  0  0  0  0  0
   14.6598    7.0468    0.9872 C   0  0  0  0  0  0  0  0  0  0  0  0
   14.4901    7.7742   -3.5409 C   0  0  0  0  0  0  0  0  0  0  0  0
   16.3049   14.3643   -0.8127 C   0  0  1  0  0  0  0  0  0  0  0  0
   14.8850   14.9207   -0.9231 C   0  0  2  0  0  0  0  0  0  0  0  0
   16.3713   12.9240   -1.3197 C   0  0  2  0  0  0  0  0  0  0  0  0
   13.8994   13.9650   -0.2418 C   0  0  1  0  0  0  0  0  0  0  0  0
   15.2844   12.0685   -0.6648 C   0  0  1  0  0  0  0  0  0  0  0  0
   32.4262   23.3967  -10.7561 C   0  0  0  0  0  0  0  0  0  0  0  0
   20.4482   21.0926    4.1793 C   0  0  0  0  0  0  0  0  0  0  0  0
   23.9206   22.0247   -8.0199 C   0  0  0  0  0  0  0  0  0  0  0  0
   22.4997   19.6982   -9.4281 C   0  0  0  0  0  0  0  0  0  0  0  0
   14.7298    6.9744    3.5355 C   0  0  0  0  0  0  0  0  0  0  0  0
   13.6435    8.0806   -4.7660 C   0  0  0  0  0  0  0  0  0  0  0  0
   12.4492   14.4146   -0.3724 C   0  0  0  0  0  0  0  0  0  0  0  0
   30.9627   23.8053  -10.7005 C   0  0  0  0  0  0  0  0  0  0  0  0
   19.6599   20.0190    4.9123 C   0  0  0  0  0  0  0  0  0  0  0  0
   25.4037   21.6415   -8.1094 C   0  0  0  0  0  0  0  0  0  0  0  0
   21.0713   19.2250   -9.1458 C   0  0  0  0  0  0  0  0  0  0  0  0
   14.8180    8.2583    4.3624 C   0  0  0  0  0  0  0  0  0  0  0  0
   13.7129    9.5359   -5.2262 C   0  0  0  0  0  0  0  0  0  0  0  0
   30.1525   22.8712   -9.8022 C   0  0  0  0  0  0  0  0  0  0  0  0
   19.5135   18.7553    4.0651 C   0  0  0  0  0  0  0  0  0  0  0  0
   26.2946   22.6320   -8.8710 C   0  0  0  0  0  0  0  0  0  0  0  0
   20.9943   17.7544   -8.7209 C   0  0  0  0  0  0  0  0  0  0  0  0
   15.6624    9.3516    3.6996 C   0  0  0  0  0  0  0  0  0  0  0  0
   15.1438    9.9933   -5.5270 C   0  0  0  0  0  0  0  0  0  0  0  0
   28.6684   23.2420   -9.7216 C   0  0  0  0  0  0  0  0  0  0  0  0
   18.7490   17.6658    4.8189 C   0  0  0  0  0  0  0  0  0  0  0  0
   27.7885   22.2939   -8.9005 C   0  0  0  0  0  0  0  0  0  0  0  0
   19.5951   17.2422   -8.3553 C   0  0  0  0  0  0  0  0  0  0  0  0
   15.8398   10.6405    4.5080 C   0  0  0  0  0  0  0  0  0  0  0  0
   15.1714   11.4463   -6.0103 C   0  0  0  0  0  0  0  0  0  0  0  0
   18.6316   16.3887    3.9837 C   0  0  0  0  0  0  0  0  0  0  0  0
   19.5306   15.7891   -7.8726 C   0  0  0  0  0  0  0  0  0  0  0  0
   16.6720   11.7024    3.7864 C   0  0  0  0  0  0  0  0  0  0  0  0
   16.5832   11.9464   -6.3320 C   0  0  0  0  0  0  0  0  0  0  0  0
   17.8338   15.3137    4.7250 C   0  0  0  0  0  0  0  0  0  0  0  0
   18.1120   15.3370   -7.5160 C   0  0  0  0  0  0  0  0  0  0  0  0
   16.8360   12.9578    4.6476 C   0  0  0  0  0  0  0  0  0  0  0  0
   16.6205   13.4214   -6.7407 C   0  0  0  0  0  0  0  0  0  0  0  0
   17.6954   14.0069    3.9386 C   0  0  0  0  0  0  0  0  0  0  0  0
   18.0428   13.8647   -7.0981 C   0  0  0  0  0  0  0  0  0  0  0  0
   14.6815    9.8054   -0.4710 C   0  0  0  0  0  0  0  0  0  0  0  0
   14.0349    7.3095   -0.3546 C   0  0  2  0  0  0  0  0  0  0  0  0
   14.7345    8.4336   -1.1563 C   0  0  1  0  0  0  0  0  0  0  0  0
   14.1003    8.5376   -2.4499 N   0  0  0  0  0  0  0  0  0  0  0  0
   15.3949    6.9445   -3.5324 O   0  0  0  0  0  0  0  0  0  0  0  0
   16.6835   17.5778   -1.0813 O   0  0  0  0  0  0  0  0  0  0  0  0
   18.2747   16.3231    0.4088 O   0  0  0  0  0  0  0  0  0  0  0  0
   13.9975   12.6622   -0.8308 O   0  0  0  0  0  0  0  0  0  0  0  0
   14.5560   15.0569   -2.3074 O   0  0  0  0  0  0  0  0  0  0  0  0
   17.6542   12.3911   -0.9921 O   0  0  0  0  0  0  0  0  0  0  0  0
   11.6829   13.7664    0.6271 O   0  0  0  0  0  0  0  0  0  0  0  0
   12.6816    7.7000   -0.0892 O   0  0  0  0  0  0  0  0  0  0  0  0
   18.9699   17.0134   -1.8853 O   0  0  0  0  0  0  0  0  0  0  0  0
   17.1957   15.1900   -1.5579 O   0  0  0  0  0  0  0  0  0  0  0  0
   15.3077   10.7894   -1.2835 O   0  0  0  0  0  0  0  0  0  0  0  0
   17.7324   16.5897   -0.9105 S   0  0  0  0  0  0  0  0  0  0  0  0
   23.0836   23.1141   -9.7330 H   0  0  0  0  0  0  0  0  0  0  0  0
   21.9844   21.3019  -10.8643 H   0  0  0  0  0  0  0  0  0  0  0  0
   13.0815    7.6034    2.2209 H   0  0  0  0  0  0  0  0  0  0  0  0
   15.6715    6.6432    0.9664 H   0  0  0  0  0  0  0  0  0  0  0  0
   16.6342   14.4049    0.2333 H   0  0  0  0  0  0  0  0  0  0  0  0
   14.8432   15.9223   -0.4800 H   0  0  0  0  0  0  0  0  0  0  0  0
   16.2857   12.9009   -2.4130 H   0  0  0  0  0  0  0  0  0  0  0  0
   14.1386   13.8839    0.8265 H   0  0  0  0  0  0  0  0  0  0  0  0
   15.4939   11.9212    0.4022 H   0  0  0  0  0  0  0  0  0  0  0  0
   32.8715   23.3965   -9.7561 H   0  0  0  0  0  0  0  0  0  0  0  0
   32.5216   22.3881  -11.1705 H   0  0  0  0  0  0  0  0  0  0  0  0
   33.0010   24.0800  -11.3892 H   0  0  0  0  0  0  0  0  0  0  0  0
   21.4450   20.7307    3.9079 H   0  0  0  0  0  0  0  0  0  0  0  0
   19.9300   21.3821    3.2597 H   0  0  0  0  0  0  0  0  0  0  0  0
   20.5642   21.9868    4.7999 H   0  0  0  0  0  0  0  0  0  0  0  0
   23.8373   22.9905   -7.5075 H   0  0  0  0  0  0  0  0  0  0  0  0
   23.4098   21.3033   -7.3695 H   0  0  0  0  0  0  0  0  0  0  0  0
   22.9567   19.0514  -10.1863 H   0  0  0  0  0  0  0  0  0  0  0  0
   23.1133   19.6169   -8.5246 H   0  0  0  0  0  0  0  0  0  0  0  0
   14.1065    6.2342    4.0504 H   0  0  0  0  0  0  0  0  0  0  0  0
   15.7217    6.5222    3.4396 H   0  0  0  0  0  0  0  0  0  0  0  0
   12.6051    7.7958   -4.5600 H   0  0  0  0  0  0  0  0  0  0  0  0
   14.0071    7.4392   -5.5786 H   0  0  0  0  0  0  0  0  0  0  0  0
   12.0610   14.1436   -1.3548 H   0  0  0  0  0  0  0  0  0  0  0  0
   12.3787   15.4942   -0.2354 H   0  0  0  0  0  0  0  0  0  0  0  0
   30.5605   23.7916  -11.7172 H   0  0  0  0  0  0  0  0  0  0  0  0
   30.8897   24.8352  -10.3329 H   0  0  0  0  0  0  0  0  0  0  0  0
   18.6696   20.4125    5.1689 H   0  0  0  0  0  0  0  0  0  0  0  0
   20.1680   19.7796    5.8535 H   0  0  0  0  0  0  0  0  0  0  0  0
   25.5022   20.6523   -8.5733 H   0  0  0  0  0  0  0  0  0  0  0  0
   25.7896   21.5257   -7.0893 H   0  0  0  0  0  0  0  0  0  0  0  0
   20.5999   19.8619   -8.3880 H   0  0  0  0  0  0  0  0  0  0  0  0
   20.4699   19.3468  -10.0565 H   0  0  0  0  0  0  0  0  0  0  0  0
   13.8076    8.6600    4.5149 H   0  0  0  0  0  0  0  0  0  0  0  0
   15.2104    8.0367    5.3621 H   0  0  0  0  0  0  0  0  0  0  0  0
   13.0812    9.6823   -6.1093 H   0  0  0  0  0  0  0  0  0  0  0  0
   13.2993   10.1693   -4.4317 H   0  0  0  0  0  0  0  0  0  0  0  0
   30.5657   22.9056   -8.7862 H   0  0  0  0  0  0  0  0  0  0  0  0
   30.2648   21.8362  -10.1443 H   0  0  0  0  0  0  0  0  0  0  0  0
   18.9868   18.9962    3.1337 H   0  0  0  0  0  0  0  0  0  0  0  0
   20.5067   18.3820    3.7874 H   0  0  0  0  0  0  0  0  0  0  0  0
   25.9206   22.7136   -9.8987 H   0  0  0  0  0  0  0  0  0  0  0  0
   26.1808   23.6333   -8.4396 H   0  0  0  0  0  0  0  0  0  0  0  0
   21.4042   17.1375   -9.5294 H   0  0  0  0  0  0  0  0  0  0  0  0
   21.6560   17.5965   -7.8598 H   0  0  0  0  0  0  0  0  0  0  0  0
   15.2086    9.5999    2.7321 H   0  0  0  0  0  0  0  0  0  0  0  0
   16.6565    8.9442    3.4764 H   0  0  0  0  0  0  0  0  0  0  0  0
   15.7558    9.8974   -4.6220 H   0  0  0  0  0  0  0  0  0  0  0  0
   15.5870    9.3412   -6.2853 H   0  0  0  0  0  0  0  0  0  0  0  0
   28.5854   24.2578   -9.3177 H   0  0  0  0  0  0  0  0  0  0  0  0
   28.2619   23.2902  -10.7398 H   0  0  0  0  0  0  0  0  0  0  0  0
   17.7471   18.0311    5.0751 H   0  0  0  0  0  0  0  0  0  0  0  0
   19.2626   17.4416    5.7617 H   0  0  0  0  0  0  0  0  0  0  0  0
   28.1548   22.2629   -7.8685 H   0  0  0  0  0  0  0  0  0  0  0  0
   27.9233   21.2754   -9.2840 H   0  0  0  0  0  0  0  0  0  0  0  0
   18.9333   17.3502   -9.2227 H   0  0  0  0  0  0  0  0  0  0  0  0
   19.1788   17.8962   -7.5787 H   0  0  0  0  0  0  0  0  0  0  0  0
   16.3326   10.3809    5.4535 H   0  0  0  0  0  0  0  0  0  0  0  0
   14.8609   11.0538    4.7768 H   0  0  0  0  0  0  0  0  0  0  0  0
   14.7501   12.0886   -5.2270 H   0  0  0  0  0  0  0  0  0  0  0  0
   14.5289   11.5593   -6.8921 H   0  0  0  0  0  0  0  0  0  0  0  0
   19.6368   16.0188    3.7533 H   0  0  0  0  0  0  0  0  0  0  0  0
   18.1418   16.6181    3.0297 H   0  0  0  0  0  0  0  0  0  0  0  0
   19.9117   15.1450   -8.6753 H   0  0  0  0  0  0  0  0  0  0  0  0
   20.2100   15.6505   -7.0262 H   0  0  0  0  0  0  0  0  0  0  0  0
   16.1906   11.9775    2.8413 H   0  0  0  0  0  0  0  0  0  0  0  0
   17.6597   11.2929    3.5428 H   0  0  0  0  0  0  0  0  0  0  0  0
   17.0217   11.3264   -7.1232 H   0  0  0  0  0  0  0  0  0  0  0  0
   17.2084   11.8109   -5.4407 H   0  0  0  0  0  0  0  0  0  0  0  0
   16.8262   15.6951    4.9323 H   0  0  0  0  0  0  0  0  0  0  0  0
   18.3001   15.1104    5.6967 H   0  0  0  0  0  0  0  0  0  0  0  0
   17.6945   15.9563   -6.7149 H   0  0  0  0  0  0  0  0  0  0  0  0
   17.4697   15.4800   -8.3938 H   0  0  0  0  0  0  0  0  0  0  0  0
   15.8491   13.3804    4.8712 H   0  0  0  0  0  0  0  0  0  0  0  0
   17.2955   12.6791    5.6024 H   0  0  0  0  0  0  0  0  0  0  0  0
   16.2281   14.0308   -5.9194 H   0  0  0  0  0  0  0  0  0  0  0  0
   15.9712   13.5889   -7.6067 H   0  0  0  0  0  0  0  0  0  0  0  0
   18.6906   13.5938    3.7339 H   0  0  0  0  0  0  0  0  0  0  0  0
   17.2449   14.2406    2.9659 H   0  0  0  0  0  0  0  0  0  0  0  0
   18.4012   13.2535   -7.9358 H   0  0  0  0  0  0  0  0  0  0  0  0
   18.7209   13.6797   -6.2566 H   0  0  0  0  0  0  0  0  0  0  0  0
   13.6443   10.1263   -0.3230 H   0  0  0  0  0  0  0  0  0  0  0  0
   15.1774    9.7832    0.5057 H   0  0  0  0  0  0  0  0  0  0  0  0
   13.9820    6.3938   -0.9525 H   0  0  0  0  0  0  0  0  0  0  0  0
   15.7804    8.1461   -1.3238 H   0  0  0  0  0  0  0  0  0  0  0  0
   13.3367    9.1975   -2.5657 H   0  0  0  0  0  0  0  0  0  0  0  0
   15.2062   15.6690   -2.6826 H   0  0  0  0  0  0  0  0  0  0  0  0
   17.6660   11.4809   -1.3248 H   0  0  0  0  0  0  0  0  0  0  0  0
   10.7647   14.0687    0.5231 H   0  0  0  0  0  0  0  0  0  0  0  0
   12.2774    7.8696   -0.9517 H   0  0  0  0  0  0  0  0  0  0  0  0
   18.7275   17.2214   -2.8177 H   0  0  0  0  0  0  0  0  0  0  0  0
  1  2  2  0  0  0  0
  1 13  1  0  0  0  0
  1 62  1  0  0  0  0
  2 14  1  0  0  0  0
  2 63  1  0  0  0  0
  3  4  2  0  0  0  0
  3 15  1  0  0  0  0
  3 64  1  0  0  0  0
  4 47  1  0  0  0  0
  4 65  1  0  0  0  0
  5 16  1  0  0  0  0
  5 49  1  0  0  0  0
  5 50  2  0  0  0  0
  6  7  1  6  0  0  0
  6 59  1  0  0  0  0
  6 66  1  0  0  0  0
  7  9  1  1  0  0  0
  7 54  1  0  0  0  0
  7 67  1  0  0  0  0
  8  6  1  1  0  0  0
  8 55  1  0  0  0  0
  8 68  1  0  0  0  0
  9 17  1  0  0  0  0
  9 53  1  0  0  0  0
  9 69  1  1  0  0  0
 10  8  1  6  0  0  0
 10 53  1  0  0  0  0
 10 60  1  0  0  0  0
 10 70  1  0  0  0  0
 11 18  1  0  0  0  0
 11 71  1  0  0  0  0
 11 72  1  0  0  0  0
 11 73  1  0  0  0  0
 12 19  1  0  0  0  0
 12 74  1  0  0  0  0
 12 75  1  0  0  0  0
 12 76  1  0  0  0  0
 13 20  1  0  0  0  0
 13 77  1  0  0  0  0
 13 78  1  0  0  0  0
 14 21  1  0  0  0  0
 14 79  1  0  0  0  0
 14 80  1  0  0  0  0
 15 22  1  0  0  0  0
 15 81  1  0  0  0  0
 15 82  1  0  0  0  0
 16 23  1  0  0  0  0
 16 83  1  0  0  0  0
 16 84  1  0  0  0  0
 17 56  1  0  0  0  0
 17 85  1  0  0  0  0
 17 86  1  0  0  0  0
 18 24  1  0  0  0  0
 18 87  1  0  0  0  0
 18 88  1  0  0  0  0
 19 25  1  0  0  0  0
 19 89  1  0  0  0  0
 19 90  1  0  0  0  0
 20 26  1  0  0  0  0
 20 91  1  0  0  0  0
 20 92  1  0  0  0  0
 21 27  1  0  0  0  0
 21 93  1  0  0  0  0
 21 94  1  0  0  0  0
 22 28  1  0  0  0  0
 22 95  1  0  0  0  0
 22 96  1  0  0  0  0
 23 29  1  0  0  0  0
 23 97  1  0  0  0  0
 23 98  1  0  0  0  0
 24 30  1  0  0  0  0
 24 99  1  0  0  0  0
 24100  1  0  0  0  0
 25 31  1  0  0  0  0
 25101  1  0  0  0  0
 25102  1  0  0  0  0
 26 32  1  0  0  0  0
 26103  1  0  0  0  0
 26104  1  0  0  0  0
 27 33  1  0  0  0  0
 27105  1  0  0  0  0
 27106  1  0  0  0  0
 28 34  1  0  0  0  0
 28107  1  0  0  0  0
 28108  1  0  0  0  0
 29 35  1  0  0  0  0
 29109  1  0  0  0  0
 29110  1  0  0  0  0
 30 32  1  0  0  0  0
 30111  1  0  0  0  0
 30112  1  0  0  0  0
 31 36  1  0  0  0  0
 31113  1  0  0  0  0
 31114  1  0  0  0  0
 32115  1  0  0  0  0
 32116  1  0  0  0  0
 33 37  1  0  0  0  0
 33117  1  0  0  0  0
 33118  1  0  0  0  0
 34 38  1  0  0  0  0
 34119  1  0  0  0  0
 34120  1  0  0  0  0
 35 39  1  0  0  0  0
 35121  1  0  0  0  0
 35122  1  0  0  0  0
 36 40  1  0  0  0  0
 36123  1  0  0  0  0
 36124  1  0  0  0  0
 37 41  1  0  0  0  0
 37125  1  0  0  0  0
 37126  1  0  0  0  0
 38 42  1  0  0  0  0
 38127  1  0  0  0  0
 38128  1  0  0  0  0
 39 43  1  0  0  0  0
 39129  1  0  0  0  0
 39130  1  0  0  0  0
 40 44  1  0  0  0  0
 40131  1  0  0  0  0
 40132  1  0  0  0  0
 41 45  1  0  0  0  0
 41133  1  0  0  0  0
 41134  1  0  0  0  0
 42 44  1  0  0  0  0
 42135  1  0  0  0  0
 42136  1  0  0  0  0
 43 45  1  0  0  0  0
 43137  1  0  0  0  0
 43138  1  0  0  0  0
 44139  1  0  0  0  0
 44140  1  0  0  0  0
 45141  1  0  0  0  0
 45142  1  0  0  0  0
 46 48  1  0  0  0  0
 46 60  1  0  0  0  0
 46143  1  0  0  0  0
 46144  1  0  0  0  0
 47 48  1  0  0  0  0
 47 57  1  0  0  0  0
 47145  1  6  0  0  0
 48 49  1  0  0  0  0
 48146  1  6  0  0  0
 49147  1  0  0  0  0
 51 61  2  0  0  0  0
 52 61  2  0  0  0  0
 54148  1  0  0  0  0
 55149  1  0  0  0  0
 56150  1  0  0  0  0
 57151  1  0  0  0  0
 58 61  1  0  0  0  0
 58152  1  0  0  0  0
 59 61  1  0  0  0  0
M  END
$$$$
DrugBank_1594
 OpenBabel01151909533D

 15 14  0  0  0  0  0  0  0  0999 V2000
   -2.1799    3.0887    1.4718 C   0  0  0  0  0  0  0  0  0  0  0  0
    1.7560   -0.6077   -0.9984 C   0  0  0  0  0  0  0  0  0  0  0  0
    0.5183   -0.6686   -0.1171 C   0  0  0  0  0  0  0  0  0  0  0  0
   -0.0475    0.7279    0.1493 C   0  0  0  0  0  0  0  0  0  0  0  0
   -1.3002    0.6884    1.0155 C   0  0  0  0  0  0  0  0  0  0  0  0
   -1.7839    2.0082    1.2662 N   0  0  0  0  0  0  0  0  0  0  0  0
    2.5337    0.0117   -0.5402 H   0  0  0  0  0  0  0  0  0  0  0  0
    2.1678   -1.6080   -1.1665 H   0  0  0  0  0  0  0  0  0  0  0  0
    1.5069   -0.1749   -1.9724 H   0  0  0  0  0  0  0  0  0  0  0  0
   -0.2363   -1.2951   -0.6061 H   0  0  0  0  0  0  0  0  0  0  0  0
    0.7767   -1.1524    0.8320 H   0  0  0  0  0  0  0  0  0  0  0  0
    0.7119    1.3362    0.6552 H   0  0  0  0  0  0  0  0  0  0  0  0
   -0.2753    1.2194   -0.8046 H   0  0  0  0  0  0  0  0  0  0  0  0
   -2.0926    0.1050    0.5360 H   0  0  0  0  0  0  0  0  0  0  0  0
   -1.0725    0.2210    1.9788 H   0  0  0  0  0  0  0  0  0  0  0  0
  1  6  3  0  0  0  0
  2  3  1  0  0  0  0
  2  7  1  0  0  0  0
  2  8  1  0  0  0  0
  2  9  1  0  0  0  0
  3  4  1  0  0  0  0
  3 10  1  0  0  0  0
  3 11  1  0  0  0  0
  4  5  1  0  0  0  0
  4 12  1  0  0  0  0
  4 13  1  0  0  0  0
  5  6  1  0  0  0  0
  5 14  1  0  0  0  0
  5 15  1  0  0  0  0
M  END
$$$$
DrugBank_1598
 OpenBabel01151909533D

 86 89  0  0  1  0  0  0  0  0999 V2000
   -4.3616   -9.1639    5.3057 C   0  0  0  0  0  0  0  0  0  0  0  0
   -5.7527   -9.1523    5.4068 C   0  0  0  0  0  0  0  0  0  0  0  0
   -0.0498   -4.7416   -0.5100 C   0  0  0  0  0  0  0  0  0  0  0  0
    1.6591   -6.6074   -1.6454 C   0  0  0  0  0  0  0  0  0  0  0  0
   -4.5371   -9.2136    2.8966 C   0  0  0  0  0  0  0  0  0  0  0  0
    1.1113   -4.3162   -1.1540 C   0  0  0  0  0  0  0  0  0  0  0  0
   -0.3807   -6.1086   -0.4250 C   0  0  0  0  0  0  0  0  0  0  0  0
    0.4894   -7.0542   -1.0020 C   0  0  0  0  0  0  0  0  0  0  0  0
   -3.7538   -9.1945    4.0505 C   0  0  0  0  0  0  0  0  0  0  0  0
    1.9665   -5.2502   -1.7226 C   0  0  0  0  0  0  0  0  0  0  0  0
   -6.5360   -9.1713    4.2529 C   0  0  0  0  0  0  0  0  0  0  0  0
   -5.9283   -9.2020    2.9977 C   0  0  0  0  0  0  0  0  0  0  0  0
    1.4086   -2.8921   -1.2164 C   0  0  0  0  0  0  0  0  0  0  0  0
   -1.1192   -6.9610    6.1486 C   0  0  0  0  0  0  0  0  0  0  0  0
   -2.2074   -7.0459    2.6676 C   0  0  0  0  0  0  0  0  0  0  0  0
    0.2264   -8.5387   -0.9451 C   0  0  0  0  0  0  0  0  0  0  0  0
   -1.0532   -8.9528   -1.6662 C   0  0  0  0  0  0  0  0  0  0  0  0
   -2.3187   -8.7299   -0.8448 C   0  0  0  0  0  0  0  0  0  0  0  0
    8.0651   -4.9091   -3.8821 C   0  0  0  0  0  0  0  0  0  0  0  0
    7.2065   -3.8414   -3.2113 C   0  0  0  0  0  0  0  0  0  0  0  0
    7.2600   -5.7262   -4.8878 C   0  0  0  0  0  0  0  0  0  0  0  0
   -2.6542   -7.2642   -0.5713 C   0  0  0  0  0  0  0  0  0  0  0  0
    5.9572   -4.4430   -2.5717 C   0  0  0  0  0  0  0  0  0  0  0  0
    6.0107   -6.3308   -4.2511 C   0  0  0  0  0  0  0  0  0  0  0  0
   -1.6545   -6.4899    0.3005 C   0  0  1  0  0  0  0  0  0  0  0  0
    5.1398   -5.2585   -3.5827 C   0  0  0  0  0  0  0  0  0  0  0  0
   -1.6271   -6.0870    7.2470 C   0  0  0  0  0  0  0  0  0  0  0  0
   -2.2486   -9.2080    3.9415 C   0  0  0  0  0  0  0  0  0  0  0  0
    3.9255   -5.8935   -2.9076 C   0  0  0  0  0  0  0  0  0  0  0  0
   -1.6468   -7.7999    3.8681 C   0  0  2  0  0  0  0  0  0  0  0  0
    2.1597   -2.3433   -0.1822 N   0  0  0  0  0  0  0  0  0  0  0  0
   -1.3820   -7.1501    1.5561 N   0  0  0  0  0  0  0  0  0  0  0  0
   -1.9472   -7.0179    5.0410 N   0  0  0  0  0  0  0  0  0  0  0  0
    0.9933   -2.1853   -2.1502 O   0  0  0  0  0  0  0  0  0  0  0  0
   -0.0511   -7.5457    6.2866 O   0  0  0  0  0  0  0  0  0  0  0  0
   -3.2474   -6.3924    2.7140 O   0  0  0  0  0  0  0  0  0  0  0  0
   -9.0426   -8.0135    3.7819 O   0  0  0  0  0  0  0  0  0  0  0  0
   -7.8454  -10.3734    1.3250 O   0  0  0  0  0  0  0  0  0  0  0  0
   -8.7809  -10.6010    3.8547 O   0  0  0  0  0  0  0  0  0  0  0  0
   -8.5817   -9.2998    5.9960 O   0  0  0  0  0  0  0  0  0  0  0  0
   -7.6402   -7.7845    1.4806 O   0  0  0  0  0  0  0  0  0  0  0  0
   -5.8294   -9.0778    0.3117 O   0  0  0  0  0  0  0  0  0  0  0  0
    3.1085   -4.8626   -2.3565 O   0  0  0  0  0  0  0  0  0  0  0  0
   -8.2972   -9.1560    4.4069 P   0  0  0  0  0  0  0  0  0  0  0  0
   -6.8990   -9.2254    1.5206 P   0  0  0  0  0  0  0  0  0  0  0  0
   -3.7598   -9.1486    6.2102 H   0  0  0  0  0  0  0  0  0  0  0  0
   -6.2210   -9.1286    6.3869 H   0  0  0  0  0  0  0  0  0  0  0  0
   -0.7103   -3.9986   -0.0657 H   0  0  0  0  0  0  0  0  0  0  0  0
    2.3412   -7.3274   -2.0937 H   0  0  0  0  0  0  0  0  0  0  0  0
   -4.0670   -9.2374    1.9167 H   0  0  0  0  0  0  0  0  0  0  0  0
    1.0612   -9.0703   -1.4205 H   0  0  0  0  0  0  0  0  0  0  0  0
    0.2240   -8.8764    0.0979 H   0  0  0  0  0  0  0  0  0  0  0  0
   -1.1368   -8.4450   -2.6350 H   0  0  0  0  0  0  0  0  0  0  0  0
   -0.9887  -10.0272   -1.8812 H   0  0  0  0  0  0  0  0  0  0  0  0
   -3.1601   -9.1705   -1.3946 H   0  0  0  0  0  0  0  0  0  0  0  0
   -2.2521   -9.2854    0.0985 H   0  0  0  0  0  0  0  0  0  0  0  0
    8.9142   -4.4354   -4.3876 H   0  0  0  0  0  0  0  0  0  0  0  0
    8.4789   -5.5777   -3.1173 H   0  0  0  0  0  0  0  0  0  0  0  0
    7.7967   -3.3203   -2.4489 H   0  0  0  0  0  0  0  0  0  0  0  0
    6.9103   -3.0907   -3.9542 H   0  0  0  0  0  0  0  0  0  0  0  0
    6.9670   -5.0851   -5.7284 H   0  0  0  0  0  0  0  0  0  0  0  0
    7.8876   -6.5248   -5.2994 H   0  0  0  0  0  0  0  0  0  0  0  0
   -2.7989   -6.7398   -1.5245 H   0  0  0  0  0  0  0  0  0  0  0  0
   -3.6279   -7.2501   -0.0630 H   0  0  0  0  0  0  0  0  0  0  0  0
    6.2556   -5.0821   -1.7306 H   0  0  0  0  0  0  0  0  0  0  0  0
    5.3407   -3.6377   -2.1546 H   0  0  0  0  0  0  0  0  0  0  0  0
    5.4320   -6.8577   -5.0193 H   0  0  0  0  0  0  0  0  0  0  0  0
    6.3121   -7.0824   -3.5101 H   0  0  0  0  0  0  0  0  0  0  0  0
   -2.1682   -5.5648    0.5939 H   0  0  0  0  0  0  0  0  0  0  0  0
    4.7695   -4.5780   -4.3596 H   0  0  0  0  0  0  0  0  0  0  0  0
   -2.2594   -6.6361    7.9630 H   0  0  0  0  0  0  0  0  0  0  0  0
   -0.8130   -5.6539    7.8501 H   0  0  0  0  0  0  0  0  0  0  0  0
   -2.2357   -5.2279    6.9225 H   0  0  0  0  0  0  0  0  0  0  0  0
   -1.8217   -9.7605    4.7895 H   0  0  0  0  0  0  0  0  0  0  0  0
   -1.9736   -9.7894    3.0515 H   0  0  0  0  0  0  0  0  0  0  0  0
    4.2408   -6.5623   -2.1012 H   0  0  0  0  0  0  0  0  0  0  0  0
    3.3355   -6.4607   -3.6336 H   0  0  0  0  0  0  0  0  0  0  0  0
   -0.5540   -7.8381    3.7896 H   0  0  0  0  0  0  0  0  0  0  0  0
    2.3813   -1.3537   -0.2006 H   0  0  0  0  0  0  0  0  0  0  0  0
    2.4907   -2.9122    0.5904 H   0  0  0  0  0  0  0  0  0  0  0  0
   -0.5438   -7.7196    1.6295 H   0  0  0  0  0  0  0  0  0  0  0  0
   -2.8112   -6.4807    5.0554 H   0  0  0  0  0  0  0  0  0  0  0  0
   -9.7184  -10.8597    3.9819 H   0  0  0  0  0  0  0  0  0  0  0  0
   -9.5033   -9.4552    6.2932 H   0  0  0  0  0  0  0  0  0  0  0  0
   -8.1229   -7.5298    0.6656 H   0  0  0  0  0  0  0  0  0  0  0  0
   -6.1685   -8.9257   -0.5960 H   0  0  0  0  0  0  0  0  0  0  0  0
  1  2  2  0  0  0  0
  1  9  1  0  0  0  0
  1 46  1  0  0  0  0
  2 11  1  0  0  0  0
  2 47  1  0  0  0  0
  3  6  2  0  0  0  0
  3  7  1  0  0  0  0
  3 48  1  0  0  0  0
  4  8  1  0  0  0  0
  4 10  2  0  0  0  0
  4 49  1  0  0  0  0
  5  9  2  0  0  0  0
  5 12  1  0  0  0  0
  5 50  1  0  0  0  0
  6 10  1  0  0  0  0
  6 13  1  0  0  0  0
  7  8  2  0  0  0  0
  7 25  1  0  0  0  0
  8 16  1  0  0  0  0
  9 28  1  0  0  0  0
 10 43  1  0  0  0  0
 11 12  2  0  0  0  0
 11 44  1  0  0  0  0
 12 45  1  0  0  0  0
 13 31  1  0  0  0  0
 13 34  2  0  0  0  0
 14 27  1  0  0  0  0
 14 33  1  0  0  0  0
 14 35  2  0  0  0  0
 15 30  1  0  0  0  0
 15 32  1  0  0  0  0
 15 36  2  0  0  0  0
 16 17  1  0  0  0  0
 16 51  1  0  0  0  0
 16 52  1  0  0  0  0
 17 18  1  0  0  0  0
 17 53  1  0  0  0  0
 17 54  1  0  0  0  0
 18 22  1  0  0  0  0
 18 55  1  0  0  0  0
 18 56  1  0  0  0  0
 19 20  1  0  0  0  0
 19 21  1  0  0  0  0
 19 57  1  0  0  0  0
 19 58  1  0  0  0  0
 20 23  1  0  0  0  0
 20 59  1  0  0  0  0
 20 60  1  0  0  0  0
 21 24  1  0  0  0  0
 21 61  1  0  0  0  0
 21 62  1  0  0  0  0
 22 25  1  0  0  0  0
 22 63  1  0  0  0  0
 22 64  1  0  0  0  0
 23 26  1  0  0  0  0
 23 65  1  0  0  0  0
 23 66  1  0  0  0  0
 24 26  1  0  0  0  0
 24 67  1  0  0  0  0
 24 68  1  0  0  0  0
 25 32  1  0  0  0  0
 25 69  1  1  0  0  0
 26 29  1  0  0  0  0
 26 70  1  0  0  0  0
 27 71  1  0  0  0  0
 27 72  1  0  0  0  0
 27 73  1  0  0  0  0
 28 30  1  0  0  0  0
 28 74  1  0  0  0  0
 28 75  1  0  0  0  0
 29 43  1  0  0  0  0
 29 76  1  0  0  0  0
 29 77  1  0  0  0  0
 30 33  1  0  0  0  0
 30 78  1  6  0  0  0
 31 79  1  0  0  0  0
 31 80  1  0  0  0  0
 32 81  1  0  0  0  0
 33 82  1  0  0  0  0
 37 44  2  0  0  0  0
 38 45  2  0  0  0  0
 39 44  1  0  0  0  0
 39 83  1  0  0  0  0
 40 44  1  0  0  0  0
 40 84  1  0  0  0  0
 41 45  1  0  0  0  0
 41 85  1  0  0  0  0
 42 45  1  0  0  0  0
 42 86  1  0  0  0  0
M  END
$$$$
DrugBank_6567
 OpenBabel01151909533D

 24 24  0  0  0  0  0  0  0  0999 V2000
    1.8851   -1.0363   -0.1124 C   0  0  0  0  0  0  0  0  0  0  0  0
    2.8783   -1.6520    2.0022 C   0  0  0  0  0  0  0  0  0  0  0  0
    0.8066   -0.4630    0.5610 C   0  0  0  0  0  0  0  0  0  0  0  0
    1.7997   -1.0786    2.6757 C   0  0  0  0  0  0  0  0  0  0  0  0
    2.9210   -1.6309    0.6081 C   0  0  0  0  0  0  0  0  0  0  0  0
    0.7638   -0.4841    1.9551 C   0  0  0  0  0  0  0  0  0  0  0  0
    3.8413   -3.7183   -0.4322 C   0  0  0  0  0  0  0  0  0  0  0  0
    4.0741   -2.2440   -0.1121 C   0  0  0  0  0  0  0  0  0  0  0  0
   -0.3400    0.1029    2.6444 N   0  0  0  0  0  0  0  0  0  0  0  0
   -0.7853   -2.1206    3.9048 O   0  0  0  0  0  0  0  0  0  0  0  0
   -2.4014   -0.2131    4.1622 O   0  0  0  0  0  0  0  0  0  0  0  0
   -2.3541   -1.5330    2.0601 O   0  0  0  0  0  0  0  0  0  0  0  0
   -1.4949   -0.9893    3.3352 S   0  0  0  0  0  0  0  0  0  0  0  0
    1.9089   -1.0175   -1.1989 H   0  0  0  0  0  0  0  0  0  0  0  0
    3.6806   -2.1137    2.5717 H   0  0  0  0  0  0  0  0  0  0  0  0
    0.0046   -0.0017   -0.0097 H   0  0  0  0  0  0  0  0  0  0  0  0
    1.7754   -1.1014    3.7622 H   0  0  0  0  0  0  0  0  0  0  0  0
    3.6380   -4.2908    0.4792 H   0  0  0  0  0  0  0  0  0  0  0  0
    4.7212   -4.1533   -0.9165 H   0  0  0  0  0  0  0  0  0  0  0  0
    2.9866   -3.8438   -1.1054 H   0  0  0  0  0  0  0  0  0  0  0  0
    4.2751   -1.6998   -1.0489 H   0  0  0  0  0  0  0  0  0  0  0  0
    4.9954   -2.1463    0.4845 H   0  0  0  0  0  0  0  0  0  0  0  0
   -0.7704    0.8975    2.1410 H   0  0  0  0  0  0  0  0  0  0  0  0
   -2.7555   -0.8331    1.4932 H   0  0  0  0  0  0  0  0  0  0  0  0
  1  3  2  0  0  0  0
  1  5  1  0  0  0  0
  1 14  1  0  0  0  0
  2  4  1  0  0  0  0
  2  5  2  0  0  0  0
  2 15  1  0  0  0  0
  3  6  1  0  0  0  0
  3 16  1  0  0  0  0
  4  6  2  0  0  0  0
  4 17  1  0  0  0  0
  5  8  1  0  0  0  0
  6  9  1  0  0  0  0
  7  8  1  0  0  0  0
  7 18  1  0  0  0  0
  7 19  1  0  0  0  0
  7 20  1  0  0  0  0
  8 21  1  0  0  0  0
  8 22  1  0  0  0  0
  9 13  1  0  0  0  0
  9 23  1  0  0  0  0
 10 13  2  0  0  0  0
 11 13  2  0  0  0  0
 12 13  1  0  0  0  0
 12 24  1  0  0  0  0
M  END
$$$$
DrugBank_1608
 OpenBabel01151909533D

 30 29  0  0  1  0  0  0  0  0999 V2000
    0.5637    0.1074    1.9708 C   0  0  0  0  0  0  0  0  0  0  0  0
    0.9247    0.1233    3.2616 C   0  0  0  0  0  0  0  0  0  0  0  0
   -2.9763   -1.0055    2.6574 C   0  0  0  0  0  0  0  0  0  0  0  0
   -3.5303   -2.2402    3.3684 C   0  0  0  0  0  0  0  0  0  0  0  0
   -0.6457    0.8124    1.4307 C   0  0  2  0  0  0  0  0  0  0  0  0
   -2.1043   -1.3455    1.4373 C   0  0  2  0  0  0  0  0  0  0  0  0
   -1.5935   -0.1196    0.6536 C   0  0  2  0  0  0  0  0  0  0  0  0
    3.5430   -0.9361    2.9498 O   0  0  0  0  0  0  0  0  0  0  0  0
   -2.4790   -3.0452    3.8823 O   0  0  0  0  0  0  0  0  0  0  0  0
   -0.1719    1.8249    0.5365 O   0  0  0  0  0  0  0  0  0  0  0  0
   -2.8636   -2.1612    0.5393 O   0  0  0  0  0  0  0  0  0  0  0  0
   -0.9184   -0.5728   -0.5270 O   0  0  0  0  0  0  0  0  0  0  0  0
    1.7676   -2.1335    4.4071 O   0  0  0  0  0  0  0  0  0  0  0  0
    2.7285    0.0308    5.2167 O   0  0  0  0  0  0  0  0  0  0  0  0
    2.3398   -0.7247    3.8315 P   0  0  0  0  0  0  0  0  0  0  0  0
    1.1741   -0.4487    1.2633 H   0  0  0  0  0  0  0  0  0  0  0  0
    0.3183    0.6748    3.9736 H   0  0  0  0  0  0  0  0  0  0  0  0
   -3.8324   -0.3970    2.3437 H   0  0  0  0  0  0  0  0  0  0  0  0
   -2.3890   -0.4235    3.3756 H   0  0  0  0  0  0  0  0  0  0  0  0
   -4.1570   -2.8491    2.7093 H   0  0  0  0  0  0  0  0  0  0  0  0
   -4.1468   -1.9268    4.2170 H   0  0  0  0  0  0  0  0  0  0  0  0
   -1.1878    1.3364    2.2264 H   0  0  0  0  0  0  0  0  0  0  0  0
   -1.2483   -1.9526    1.7474 H   0  0  0  0  0  0  0  0  0  0  0  0
   -2.4541    0.4540    0.2864 H   0  0  0  0  0  0  0  0  0  0  0  0
   -2.8954   -3.8067    4.3181 H   0  0  0  0  0  0  0  0  0  0  0  0
   -0.9590    2.2727    0.1945 H   0  0  0  0  0  0  0  0  0  0  0  0
   -2.2816   -2.3515   -0.2105 H   0  0  0  0  0  0  0  0  0  0  0  0
   -0.7050    0.2221   -1.0354 H   0  0  0  0  0  0  0  0  0  0  0  0
    2.3484   -2.7005    4.9584 H   0  0  0  0  0  0  0  0  0  0  0  0
    3.3753   -0.3943    5.8192 H   0  0  0  0  0  0  0  0  0  0  0  0
  1  2  2  0  0  0  0
  1  5  1  0  0  0  0
  1 16  1  0  0  0  0
  2 15  1  0  0  0  0
  2 17  1  0  0  0  0
  3  4  1  0  0  0  0
  3  6  1  0  0  0  0
  3 18  1  0  0  0  0
  3 19  1  0  0  0  0
  4  9  1  0  0  0  0
  4 20  1  0  0  0  0
  4 21  1  0  0  0  0
  5  7  1  0  0  0  0
  5 10  1  0  0  0  0
  5 22  1  1  0  0  0
  6  7  1  0  0  0  0
  6 11  1  0  0  0  0
  6 23  1  1  0  0  0
  7 12  1  0  0  0  0
  7 24  1  6  0  0  0
  8 15  2  0  0  0  0
  9 25  1  0  0  0  0
 10 26  1  0  0  0  0
 11 27  1  0  0  0  0
 12 28  1  0  0  0  0
 13 15  1  0  0  0  0
 13 29  1  0  0  0  0
 14 15  1  0  0  0  0
 14 30  1  0  0  0  0
M  END
$$$$
DrugBank_6573
 OpenBabel01151909533D

 36 35  0  0  0  0  0  0  0  0999 V2000
   -6.2072   -6.2131   -9.8942 C   0  0  0  0  0  0  0  0  0  0  0  0
   -2.9628    2.3594    0.3759 C   0  0  0  0  0  0  0  0  0  0  0  0
   -3.3899    2.1891   -1.0732 C   0  0  0  0  0  0  0  0  0  0  0  0
   -3.3848    0.7182   -1.4892 C   0  0  0  0  0  0  0  0  0  0  0  0
   -3.8476    0.5476   -2.9381 C   0  0  0  0  0  0  0  0  0  0  0  0
   -3.8779   -0.9289   -3.3391 C   0  0  0  0  0  0  0  0  0  0  0  0
   -4.4032   -1.1639   -4.7582 C   0  0  0  0  0  0  0  0  0  0  0  0
   -4.5034   -2.6442   -5.1326 C   0  0  0  0  0  0  0  0  0  0  0  0
   -5.0037   -2.8195   -6.5688 C   0  0  0  0  0  0  0  0  0  0  0  0
   -5.1331   -4.3010   -6.9352 C   0  0  0  0  0  0  0  0  0  0  0  0
   -5.6614   -4.5005   -8.3505 C   0  0  0  0  0  0  0  0  0  0  0  0
   -6.5439   -5.3991  -10.7454 O   0  0  0  0  0  0  0  0  0  0  0  0
   -5.7443   -5.8873   -8.6459 O   0  0  0  0  0  0  0  0  0  0  0  0
   -6.2978   -7.9418  -10.2273 S   0  0  0  0  0  0  0  0  0  0  0  0
   -1.9614    1.9487    0.5405 H   0  0  0  0  0  0  0  0  0  0  0  0
   -3.6581    1.8519    1.0522 H   0  0  0  0  0  0  0  0  0  0  0  0
   -2.9425    3.4205    0.6431 H   0  0  0  0  0  0  0  0  0  0  0  0
   -4.3939    2.6094   -1.2041 H   0  0  0  0  0  0  0  0  0  0  0  0
   -2.7119    2.7610   -1.7174 H   0  0  0  0  0  0  0  0  0  0  0  0
   -2.3742    0.3074   -1.3758 H   0  0  0  0  0  0  0  0  0  0  0  0
   -4.0428    0.1467   -0.8234 H   0  0  0  0  0  0  0  0  0  0  0  0
   -3.1708    1.1025   -3.5973 H   0  0  0  0  0  0  0  0  0  0  0  0
   -4.8476    0.9817   -3.0572 H   0  0  0  0  0  0  0  0  0  0  0  0
   -2.8740   -1.3601   -3.2423 H   0  0  0  0  0  0  0  0  0  0  0  0
   -4.5246   -1.4757   -2.6415 H   0  0  0  0  0  0  0  0  0  0  0  0
   -3.7623   -0.6416   -5.4789 H   0  0  0  0  0  0  0  0  0  0  0  0
   -5.3984   -0.7080   -4.8329 H   0  0  0  0  0  0  0  0  0  0  0  0
   -5.1866   -3.1530   -4.4419 H   0  0  0  0  0  0  0  0  0  0  0  0
   -3.5233   -3.1240   -5.0343 H   0  0  0  0  0  0  0  0  0  0  0  0
   -4.3080   -2.3303   -7.2615 H   0  0  0  0  0  0  0  0  0  0  0  0
   -5.9744   -2.3219   -6.6799 H   0  0  0  0  0  0  0  0  0  0  0  0
   -4.1562   -4.7898   -6.8458 H   0  0  0  0  0  0  0  0  0  0  0  0
   -5.8138   -4.7837   -6.2234 H   0  0  0  0  0  0  0  0  0  0  0  0
   -4.9826   -4.0354   -9.0722 H   0  0  0  0  0  0  0  0  0  0  0  0
   -6.6547   -4.0548   -8.4648 H   0  0  0  0  0  0  0  0  0  0  0  0
   -5.8414   -8.3576   -9.0369 H   0  0  0  0  0  0  0  0  0  0  0  0
  1 12  2  0  0  0  0
  1 13  1  0  0  0  0
  1 14  1  0  0  0  0
  2  3  1  0  0  0  0
  2 15  1  0  0  0  0
  2 16  1  0  0  0  0
  2 17  1  0  0  0  0
  3  4  1  0  0  0  0
  3 18  1  0  0  0  0
  3 19  1  0  0  0  0
  4  5  1  0  0  0  0
  4 20  1  0  0  0  0
  4 21  1  0  0  0  0
  5  6  1  0  0  0  0
  5 22  1  0  0  0  0
  5 23  1  0  0  0  0
  6  7  1  0  0  0  0
  6 24  1  0  0  0  0
  6 25  1  0  0  0  0
  7  8  1  0  0  0  0
  7 26  1  0  0  0  0
  7 27  1  0  0  0  0
  8  9  1  0  0  0  0
  8 28  1  0  0  0  0
  8 29  1  0  0  0  0
  9 10  1  0  0  0  0
  9 30  1  0  0  0  0
  9 31  1  0  0  0  0
 10 11  1  0  0  0  0
 10 32  1  0  0  0  0
 10 33  1  0  0  0  0
 11 13  1  0  0  0  0
 11 34  1  0  0  0  0
 11 35  1  0  0  0  0
 14 36  1  0  0  0  0
M  END
$$$$
DrugBank_4247
 OpenBabel01151909533D

 33 36  0  0  0  0  0  0  0  0999 V2000
    3.3179   -6.7370    4.0302 C   0  0  0  0  0  0  0  0  0  0  0  0
    2.8086   -7.4342    2.9345 C   0  0  0  0  0  0  0  0  0  0  0  0
    3.3702   -5.3431    4.0108 C   0  0  0  0  0  0  0  0  0  0  0  0
    2.3493   -6.7397    1.8148 C   0  0  0  0  0  0  0  0  0  0  0  0
    1.4701   -2.7836   -0.5836 C   0  0  0  0  0  0  0  0  0  0  0  0
    1.4669   -1.3956   -0.7267 C   0  0  0  0  0  0  0  0  0  0  0  0
    2.4411   -1.1589    1.4736 C   0  0  0  0  0  0  0  0  0  0  0  0
    2.9090   -4.6521    2.8873 C   0  0  0  0  0  0  0  0  0  0  0  0
    2.4420   -2.5493    1.6123 C   0  0  0  0  0  0  0  0  0  0  0  0
    2.3988   -5.3444    1.7895 C   0  0  0  0  0  0  0  0  0  0  0  0
    1.9587   -3.3639    0.5888 C   0  0  0  0  0  0  0  0  0  0  0  0
    1.9517   -0.5851    0.3001 C   0  0  0  0  0  0  0  0  0  0  0  0
    2.9517   -3.1827    2.8381 C   0  0  0  0  0  0  0  0  0  0  0  0
    3.6968    2.7113   -0.8286 C   0  0  0  0  0  0  0  0  0  0  0  0
    4.7660    4.6024   -1.5061 N   0  0  0  0  0  0  0  0  0  0  0  0
    3.6367    4.9757   -1.0464 N   0  0  0  0  0  0  0  0  0  0  0  0
    3.3987    1.4859   -0.5643 N   0  0  0  0  0  0  0  0  0  0  0  0
    4.8223    3.2451   -1.3847 N   0  0  0  0  0  0  0  0  0  0  0  0
    2.9785    3.8545   -0.6341 N   0  0  0  0  0  0  0  0  0  0  0  0
    3.3889   -2.5219    3.7687 O   0  0  0  0  0  0  0  0  0  0  0  0
    0.8752    1.4570   -0.8275 O   0  0  0  0  0  0  0  0  0  0  0  0
    1.9139    1.7422    1.4497 O   0  0  0  0  0  0  0  0  0  0  0  0
    1.9280   -4.7353    0.6524 O   0  0  0  0  0  0  0  0  0  0  0  0
    1.9454    1.1514    0.1153 S   0  0  0  0  0  0  0  0  0  0  0  0
    3.6743   -7.2807    4.9005 H   0  0  0  0  0  0  0  0  0  0  0  0
    2.7697   -8.5195    2.9530 H   0  0  0  0  0  0  0  0  0  0  0  0
    3.7702   -4.8175    4.8732 H   0  0  0  0  0  0  0  0  0  0  0  0
    1.9541   -7.2921    0.9663 H   0  0  0  0  0  0  0  0  0  0  0  0
    1.0904   -3.4059   -1.3897 H   0  0  0  0  0  0  0  0  0  0  0  0
    1.0841   -0.9559   -1.6439 H   0  0  0  0  0  0  0  0  0  0  0  0
    2.8167   -0.5208    2.2693 H   0  0  0  0  0  0  0  0  0  0  0  0
    5.6332    2.7191   -1.6872 H   0  0  0  0  0  0  0  0  0  0  0  0
    2.0517    3.9033   -0.2287 H   0  0  0  0  0  0  0  0  0  0  0  0
  1  2  2  0  0  0  0
  1  3  1  0  0  0  0
  1 25  1  0  0  0  0
  2  4  1  0  0  0  0
  2 26  1  0  0  0  0
  3  8  2  0  0  0  0
  3 27  1  0  0  0  0
  4 10  2  0  0  0  0
  4 28  1  0  0  0  0
  5  6  2  0  0  0  0
  5 11  1  0  0  0  0
  5 29  1  0  0  0  0
  6 12  1  0  0  0  0
  6 30  1  0  0  0  0
  7  9  1  0  0  0  0
  7 12  2  0  0  0  0
  7 31  1  0  0  0  0
  8 10  1  0  0  0  0
  8 13  1  0  0  0  0
  9 11  2  0  0  0  0
  9 13  1  0  0  0  0
 10 23  1  0  0  0  0
 11 23  1  0  0  0  0
 12 24  1  0  0  0  0
 13 20  2  0  0  0  0
 14 17  2  0  0  0  0
 14 18  1  0  0  0  0
 14 19  1  0  0  0  0
 15 16  2  0  0  0  0
 15 18  1  0  0  0  0
 16 19  1  0  0  0  0
 17 24  1  0  0  0  0
 18 32  1  0  0  0  0
 19 33  1  0  0  0  0
 21 24  2  0  0  0  0
 22 24  2  0  0  0  0
M  END
$$$$
DrugBank_4249
 OpenBabel01151909533D

 39 38  0  0  1  0  0  0  0  0999 V2000
    2.9230    0.5102   -0.5597 C   0  0  0  0  0  0  0  0  0  0  0  0
    0.0224    0.2320    0.7795 C   0  0  0  0  0  0  0  0  0  0  0  0
   -1.5818    3.0322    0.3806 C   0  0  0  0  0  0  0  0  0  0  0  0
    7.4413    0.5791   -1.0249 C   0  0  0  0  0  0  0  0  0  0  0  0
    4.3667    0.5880   -0.0913 C   0  0  0  0  0  0  0  0  0  0  0  0
   -2.0269    1.6515    0.7542 C   0  0  0  0  0  0  0  0  0  0  0  0
    5.1915    1.6494   -0.8216 C   0  0  0  0  0  0  0  0  0  0  0  0
    0.4334   -2.1665    0.1996 C   0  0  0  0  0  0  0  0  0  0  0  0
    0.8128   -0.7219   -0.1087 C   0  0  2  0  0  0  0  0  0  0  0  0
    6.6543    1.6984   -0.3726 C   0  0  2  0  0  0  0  0  0  0  0  0
    7.3037    2.9287   -0.7475 N   0  0  0  0  0  0  0  0  0  0  0  0
   -1.1252    0.6963    0.1518 N   0  0  0  0  0  0  0  0  0  0  0  0
    2.2140   -0.4636    0.1284 N   0  0  0  0  0  0  0  0  0  0  0  0
    2.4548    1.2446   -1.4255 O   0  0  0  0  0  0  0  0  0  0  0  0
    0.3995    0.5716    1.8991 O   0  0  0  0  0  0  0  0  0  0  0  0
   -0.6305    3.3212   -0.3298 O   0  0  0  0  0  0  0  0  0  0  0  0
    7.9706    0.6371   -2.1273 O   0  0  0  0  0  0  0  0  0  0  0  0
    2.3566   -3.5621   -1.0363 O   0  0  0  0  0  0  0  0  0  0  0  0
   -2.4002    3.9531    0.9523 O   0  0  0  0  0  0  0  0  0  0  0  0
    7.4560   -0.5432   -0.2586 O   0  0  0  0  0  0  0  0  0  0  0  0
    0.0941   -4.5170   -0.5250 O   0  0  0  0  0  0  0  0  0  0  0  0
    0.8939   -3.2792   -1.1675 S   0  0  1  0  0  0  0  0  0  0  0  0
    4.8335   -0.3988   -0.1868 H   0  0  0  0  0  0  0  0  0  0  0  0
    4.3417    0.8351    0.9773 H   0  0  0  0  0  0  0  0  0  0  0  0
   -1.9927    1.5358    1.8408 H   0  0  0  0  0  0  0  0  0  0  0  0
   -3.0385    1.4731    0.3806 H   0  0  0  0  0  0  0  0  0  0  0  0
    4.7257    2.6289   -0.6487 H   0  0  0  0  0  0  0  0  0  0  0  0
    5.1408    1.4741   -1.9039 H   0  0  0  0  0  0  0  0  0  0  0  0
    0.9454   -2.5324    1.0956 H   0  0  0  0  0  0  0  0  0  0  0  0
   -0.6450   -2.2735    0.3598 H   0  0  0  0  0  0  0  0  0  0  0  0
    0.6220   -0.4762   -1.1600 H   0  0  0  0  0  0  0  0  0  0  0  0
    6.7558    1.6229    0.7147 H   0  0  0  0  0  0  0  0  0  0  0  0
    8.3017    2.9349   -0.8764 H   0  0  0  0  0  0  0  0  0  0  0  0
    6.7923    3.7925   -0.6760 H   0  0  0  0  0  0  0  0  0  0  0  0
   -1.3496    0.3650   -0.7818 H   0  0  0  0  0  0  0  0  0  0  0  0
    2.7001   -1.0176    0.8274 H   0  0  0  0  0  0  0  0  0  0  0  0
   -3.1069    3.5323    1.4871 H   0  0  0  0  0  0  0  0  0  0  0  0
    6.9978   -0.4659    0.6053 H   0  0  0  0  0  0  0  0  0  0  0  0
    0.3217   -5.3491   -1.0023 H   0  0  0  0  0  0  0  0  0  0  0  0
  1  5  1  0  0  0  0
  1 13  1  0  0  0  0
  1 14  2  0  0  0  0
  2  9  1  0  0  0  0
  2 12  1  0  0  0  0
  2 15  2  0  0  0  0
  3  6  1  0  0  0  0
  3 16  2  0  0  0  0
  3 19  1  0  0  0  0
  4 10  1  0  0  0  0
  4 17  2  0  0  0  0
  4 20  1  0  0  0  0
  5  7  1  0  0  0  0
  5 23  1  0  0  0  0
  5 24  1  0  0  0  0
  6 12  1  0  0  0  0
  6 25  1  0  0  0  0
  6 26  1  0  0  0  0
  7 10  1  0  0  0  0
  7 27  1  0  0  0  0
  7 28  1  0  0  0  0
  8  9  1  0  0  0  0
  8 22  1  0  0  0  0
  8 29  1  0  0  0  0
  8 30  1  0  0  0  0
  9 13  1  0  0  0  0
  9 31  1  6  0  0  0
 10 11  1  0  0  0  0
 10 32  1  1  0  0  0
 11 33  1  0  0  0  0
 11 34  1  0  0  0  0
 12 35  1  0  0  0  0
 13 36  1  0  0  0  0
 19 37  1  0  0  0  0
 20 38  1  0  0  0  0
 21 22  1  0  0  0  0
 21 39  1  0  0  0  0
 22 18  2  1  0  0  0
M  END
$$$$
DrugBank_1633
 OpenBabel01151909533D

 22 22  0  0  1  0  0  0  0  0999 V2000
    1.8851   -1.0363   -0.1124 C   0  0  0  0  0  0  0  0  0  0  0  0
    0.8066   -0.4630    0.5610 C   0  0  0  0  0  0  0  0  0  0  0  0
    2.9210   -1.6309    0.6081 C   0  0  0  0  0  0  0  0  0  0  0  0
    0.7638   -0.4841    1.9551 C   0  0  0  0  0  0  0  0  0  0  0  0
    2.8783   -1.6520    2.0022 C   0  0  0  0  0  0  0  0  0  0  0  0
    1.7997   -1.0786    2.6757 C   0  0  0  0  0  0  0  0  0  0  0  0
    3.1089   -1.0850    4.8584 C   0  0  0  0  0  0  0  0  0  0  0  0
    1.7548   -1.1014    4.1663 C   0  0  2  0  0  0  0  0  0  0  0  0
    3.5429   -1.9866    5.5635 O   0  0  0  0  0  0  0  0  0  0  0  0
    1.7025   -3.6909    4.5855 O   0  0  0  0  0  0  0  0  0  0  0  0
   -0.4566   -2.5002    4.0038 O   0  0  0  0  0  0  0  0  0  0  0  0
    3.8004    0.0656    4.6445 O   0  0  0  0  0  0  0  0  0  0  0  0
    0.6399   -2.1200    6.2266 O   0  0  0  0  0  0  0  0  0  0  0  0
    0.8326   -2.5358    4.6626 S   0  0  0  0  0  0  0  0  0  0  0  0
    1.9176   -1.0210   -1.1980 H   0  0  0  0  0  0  0  0  0  0  0  0
   -0.0006   -0.0010    0.0001 H   0  0  0  0  0  0  0  0  0  0  0  0
    3.7604   -2.0783    0.0841 H   0  0  0  0  0  0  0  0  0  0  0  0
   -0.0804   -0.0348    2.4713 H   0  0  0  0  0  0  0  0  0  0  0  0
    3.6899   -2.1173    2.5553 H   0  0  0  0  0  0  0  0  0  0  0  0
    1.1876   -0.2362    4.5512 H   0  0  0  0  0  0  0  0  0  0  0  0
    3.3589    0.7202    4.0630 H   0  0  0  0  0  0  0  0  0  0  0  0
    1.4636   -2.1128    6.7688 H   0  0  0  0  0  0  0  0  0  0  0  0
  1  2  2  0  0  0  0
  1  3  1  0  0  0  0
  1 15  1  0  0  0  0
  2  4  1  0  0  0  0
  2 16  1  0  0  0  0
  3  5  2  0  0  0  0
  3 17  1  0  0  0  0
  4  6  2  0  0  0  0
  4 18  1  0  0  0  0
  5  6  1  0  0  0  0
  5 19  1  0  0  0  0
  6  8  1  0  0  0  0
  7  8  1  0  0  0  0
  7  9  2  0  0  0  0
  7 12  1  0  0  0  0
  8 14  1  0  0  0  0
  8 20  1  1  0  0  0
 10 14  2  0  0  0  0
 11 14  2  0  0  0  0
 12 21  1  0  0  0  0
 13 14  1  0  0  0  0
 13 22  1  0  0  0  0
M  END
$$$$
DrugBank_1634
 OpenBabel01151909533D

 42 41  0  0  1  0  0  0  0  0999 V2000
   -4.7622    2.1575   -2.5731 C   0  0  0  0  0  0  0  0  0  0  0  0
   -3.7147   -2.4889   -3.0706 C   0  0  0  0  0  0  0  0  0  0  0  0
   -0.1941   -1.5006   -2.5757 C   0  0  0  0  0  0  0  0  0  0  0  0
   -7.9902    2.2807   -3.2856 C   0  0  0  0  0  0  0  0  0  0  0  0
   -3.8014    2.4792   -1.4463 C   0  0  0  0  0  0  0  0  0  0  0  0
   -4.4236   -2.7031   -4.3843 C   0  0  0  0  0  0  0  0  0  0  0  0
   -2.3453    2.4000   -1.9032 C   0  0  0  0  0  0  0  0  0  0  0  0
   -1.9155    1.0498   -2.4895 C   0  0  0  0  0  0  0  0  0  0  0  0
   -2.0742   -0.1186   -1.5082 C   0  0  0  0  0  0  0  0  0  0  0  0
   -1.6666   -1.4612   -2.1291 C   0  0  1  0  0  0  0  0  0  0  0  0
   -6.9994    1.1591   -3.0284 C   0  0  1  0  0  0  0  0  0  0  0  0
   -2.5288   -1.7927   -3.2411 N   0  0  0  0  0  0  0  0  0  0  0  0
   -5.9403    1.5817   -2.1299 N   0  0  0  0  0  0  0  0  0  0  0  0
   -5.6781   -3.4725   -4.2051 N   0  3  0  0  0  0  0  0  0  0  0  0
    0.5779   -0.7658   -1.8931 O   0  0  0  0  0  0  0  0  0  0  0  0
   -6.6126   -1.2855   -1.9734 O   0  0  0  0  0  0  0  0  0  0  0  0
   -4.4741    2.3764   -3.7479 O   0  0  0  0  0  0  0  0  0  0  0  0
   -4.1525   -2.8891   -1.9953 O   0  0  0  0  0  0  0  0  0  0  0  0
    0.0756   -2.2422   -3.5608 O   0  0  0  0  0  0  0  0  0  0  0  0
   -8.8831   -0.7402   -3.1272 O   0  0  0  0  0  0  0  0  0  0  0  0
   -7.7516   -0.3116   -2.2119 P   0  0  2  0  0  0  0  0  0  0  0  0
   -8.4462    2.6252   -2.3515 H   0  0  0  0  0  0  0  0  0  0  0  0
   -8.7961    1.9379   -3.9414 H   0  0  0  0  0  0  0  0  0  0  0  0
   -7.5007    3.1393   -3.7564 H   0  0  0  0  0  0  0  0  0  0  0  0
   -3.9879    1.8353   -0.5811 H   0  0  0  0  0  0  0  0  0  0  0  0
   -4.0226    3.5022   -1.1184 H   0  0  0  0  0  0  0  0  0  0  0  0
   -3.7932   -3.2755   -5.0705 H   0  0  0  0  0  0  0  0  0  0  0  0
   -4.6975   -1.7428   -4.8299 H   0  0  0  0  0  0  0  0  0  0  0  0
   -1.6965    2.6408   -1.0522 H   0  0  0  0  0  0  0  0  0  0  0  0
   -2.1656    3.1734   -2.6607 H   0  0  0  0  0  0  0  0  0  0  0  0
   -0.8588    1.1280   -2.7749 H   0  0  0  0  0  0  0  0  0  0  0  0
   -2.4692    0.8511   -3.4136 H   0  0  0  0  0  0  0  0  0  0  0  0
   -1.4543    0.0786   -0.6244 H   0  0  0  0  0  0  0  0  0  0  0  0
   -3.1126   -0.1774   -1.1623 H   0  0  0  0  0  0  0  0  0  0  0  0
   -1.8037   -2.2539   -1.3828 H   0  0  0  0  0  0  0  0  0  0  0  0
   -6.5540    0.8279   -3.9727 H   0  0  0  0  0  0  0  0  0  0  0  0
   -2.2331   -1.5211   -4.1733 H   0  0  0  0  0  0  0  0  0  0  0  0
   -6.0697    1.4490   -1.1314 H   0  0  0  0  0  0  0  0  0  0  0  0
   -5.4806   -4.4337   -3.9056 H   0  0  0  0  0  0  0  0  0  0  0  0
   -6.2093   -3.5184   -5.0818 H   0  0  0  0  0  0  0  0  0  0  0  0
   -6.2780   -3.0380   -3.4952 H   0  0  0  0  0  0  0  0  0  0  0  0
   -8.2418    0.2178   -0.9992 H   0  0  0  0  0  0  0  0  0  0  0  0
  1  5  1  0  0  0  0
  1 13  1  0  0  0  0
  1 17  2  0  0  0  0
  2  6  1  0  0  0  0
  2 12  1  0  0  0  0
  2 18  2  0  0  0  0
  3 10  1  0  0  0  0
  3 15  1  0  0  0  0
  3 19  2  0  0  0  0
  4 11  1  0  0  0  0
  4 22  1  0  0  0  0
  4 23  1  0  0  0  0
  4 24  1  0  0  0  0
  5  7  1  0  0  0  0
  5 25  1  0  0  0  0
  5 26  1  0  0  0  0
  6 14  1  0  0  0  0
  6 27  1  0  0  0  0
  6 28  1  0  0  0  0
  7  8  1  0  0  0  0
  7 29  1  0  0  0  0
  7 30  1  0  0  0  0
  8  9  1  0  0  0  0
  8 31  1  0  0  0  0
  8 32  1  0  0  0  0
  9 10  1  0  0  0  0
  9 33  1  0  0  0  0
  9 34  1  0  0  0  0
 10 12  1  0  0  0  0
 10 35  1  1  0  0  0
 11 13  1  0  0  0  0
 11 21  1  0  0  0  0
 11 36  1  6  0  0  0
 12 37  1  0  0  0  0
 13 38  1  0  0  0  0
 14 39  1  0  0  0  0
 14 40  1  0  0  0  0
 14 41  1  0  0  0  0
 16 21  1  0  0  0  0
 20 21  2  0  0  0  0
 21 42  1  1  0  0  0
M  CHG  1  14   1
M  END
$$$$
DrugBank_1637
 OpenBabel01151909533D

 34 34  0  0  1  0  0  0  0  0999 V2000
    3.6958    0.7072    0.7773 C   0  0  0  0  0  0  0  0  0  0  0  0
    1.6326    1.3683   -0.4429 C   0  0  2  0  0  0  0  0  0  0  0  0
    0.2477    1.0609    0.1346 C   0  0  2  0  0  0  0  0  0  0  0  0
   -0.8328    1.9416   -0.4968 C   0  0  1  0  0  0  0  0  0  0  0  0
   -0.7278    1.9143   -2.0238 C   0  0  1  0  0  0  0  0  0  0  0  0
    1.5960    1.4133   -1.9744 C   0  0  1  0  0  0  0  0  0  0  0  0
    4.5495   -0.4645    1.1331 C   0  0  0  0  0  0  0  0  0  0  0  0
   -1.7127    2.8712   -2.6878 C   0  0  0  0  0  0  0  0  0  0  0  0
    2.5937    0.3847    0.0115 N   0  0  0  0  0  0  0  0  0  0  0  0
    4.0103    1.8250    1.1689 O   0  0  0  0  0  0  0  0  0  0  0  0
   -2.0220    0.9706    2.3640 O   0  0  0  0  0  0  0  0  0  0  0  0
   -2.6039    3.2849    1.5690 O   0  0  0  0  0  0  0  0  0  0  0  0
    0.5845    2.3138   -2.4232 O   0  0  0  0  0  0  0  0  0  0  0  0
    0.2770    1.3041    1.5425 O   0  0  0  0  0  0  0  0  0  0  0  0
    2.8687    1.8615   -2.4389 O   0  0  0  0  0  0  0  0  0  0  0  0
   -1.5421    2.7917   -4.0912 O   0  0  0  0  0  0  0  0  0  0  0  0
   -4.2439    1.4195    1.3371 O   0  0  0  0  0  0  0  0  0  0  0  0
   -2.1032    1.4519   -0.0757 O   0  0  0  0  0  0  0  0  0  0  0  0
   -2.6704    1.8447    1.4042 S   0  0  0  0  0  0  0  0  0  0  0  0
    1.9910    2.3282   -0.0497 H   0  0  0  0  0  0  0  0  0  0  0  0
   -0.0001   -0.0000    0.0001 H   0  0  0  0  0  0  0  0  0  0  0  0
   -0.7252    2.9653   -0.1157 H   0  0  0  0  0  0  0  0  0  0  0  0
   -0.9332    0.9060   -2.4066 H   0  0  0  0  0  0  0  0  0  0  0  0
    1.4162    0.4154   -2.3950 H   0  0  0  0  0  0  0  0  0  0  0  0
    5.3373   -0.6531    0.3861 H   0  0  0  0  0  0  0  0  0  0  0  0
    5.0814   -0.3228    2.0876 H   0  0  0  0  0  0  0  0  0  0  0  0
    4.0152   -1.4222    1.2387 H   0  0  0  0  0  0  0  0  0  0  0  0
   -1.5191    3.8923   -2.3588 H   0  0  0  0  0  0  0  0  0  0  0  0
   -2.7346    2.5902   -2.4327 H   0  0  0  0  0  0  0  0  0  0  0  0
    2.4503   -0.5860   -0.2448 H   0  0  0  0  0  0  0  0  0  0  0  0
    0.9517    0.7124    1.9072 H   0  0  0  0  0  0  0  0  0  0  0  0
    2.8166    1.8801   -3.4066 H   0  0  0  0  0  0  0  0  0  0  0  0
   -2.1785    3.4084   -4.4915 H   0  0  0  0  0  0  0  0  0  0  0  0
   -4.7640    1.8209    0.6025 H   0  0  0  0  0  0  0  0  0  0  0  0
  1  7  1  0  0  0  0
  1  9  1  0  0  0  0
  1 10  2  0  0  0  0
  2  3  1  1  0  0  0
  2  9  1  0  0  0  0
  2 20  1  0  0  0  0
  3  4  1  6  0  0  0
  3 14  1  0  0  0  0
  3 21  1  0  0  0  0
  4  5  1  6  0  0  0
  4 18  1  0  0  0  0
  4 22  1  0  0  0  0
  5  8  1  0  0  0  0
  5 13  1  0  0  0  0
  5 23  1  6  0  0  0
  6  2  1  1  0  0  0
  6 13  1  0  0  0  0
  6 15  1  0  0  0  0
  6 24  1  0  0  0  0
  7 25  1  0  0  0  0
  7 26  1  0  0  0  0
  7 27  1  0  0  0  0
  8 16  1  0  0  0  0
  8 28  1  0  0  0  0
  8 29  1  0  0  0  0
  9 30  1  0  0  0  0
 11 19  2  0  0  0  0
 12 19  2  0  0  0  0
 14 31  1  0  0  0  0
 15 32  1  0  0  0  0
 16 33  1  0  0  0  0
 17 19  1  0  0  0  0
 17 34  1  0  0  0  0
 18 19  1  0  0  0  0
M  END
$$$$
DrugBank_6601
 OpenBabel01151909533D

 39 38  0  0  0  0  0  0  0  0999 V2000
    2.9302    5.6397   -2.5949 C   0  0  0  0  0  0  0  0  0  0  0  0
   -3.7569   -6.8803    2.3072 C   0  0  0  0  0  0  0  0  0  0  0  0
    1.7971    5.0554   -1.7946 C   0  0  0  0  0  0  0  0  0  0  0  0
    1.8421    3.5310   -1.7417 C   0  0  0  0  0  0  0  0  0  0  0  0
    0.6796    2.8740   -0.9887 C   0  0  0  0  0  0  0  0  0  0  0  0
    0.7710    1.3474   -0.9364 C   0  0  0  0  0  0  0  0  0  0  0  0
   -0.4244    0.7464   -0.1931 C   0  0  0  0  0  0  0  0  0  0  0  0
   -0.3529   -0.7815   -0.1679 C   0  0  0  0  0  0  0  0  0  0  0  0
   -1.5300   -1.3807    0.6036 C   0  0  0  0  0  0  0  0  0  0  0  0
   -1.4773   -2.9093    0.6004 C   0  0  0  0  0  0  0  0  0  0  0  0
   -2.6338   -3.5067    1.3989 C   0  0  0  0  0  0  0  0  0  0  0  0
   -2.5649   -5.0268    1.4367 C   0  0  0  0  0  0  0  0  0  0  0  0
    3.8191    4.9868   -3.1228 O   0  0  0  0  0  0  0  0  0  0  0  0
   -2.9550   -7.6750    1.8322 O   0  0  0  0  0  0  0  0  0  0  0  0
    2.8417    6.9910   -2.6558 O   0  0  0  0  0  0  0  0  0  0  0  0
   -3.6723   -5.5185    2.1788 O   0  0  0  0  0  0  0  0  0  0  0  0
   -5.1422   -7.4559    3.2328 S   0  0  0  0  0  0  0  0  0  0  0  0
    1.8486    5.4702   -0.7807 H   0  0  0  0  0  0  0  0  0  0  0  0
    0.8518    5.4130   -2.2162 H   0  0  0  0  0  0  0  0  0  0  0  0
    2.7871    3.2240   -1.2771 H   0  0  0  0  0  0  0  0  0  0  0  0
    1.8550    3.1330   -2.7641 H   0  0  0  0  0  0  0  0  0  0  0  0
   -0.2531    3.1595   -1.4914 H   0  0  0  0  0  0  0  0  0  0  0  0
    0.6182    3.2762    0.0295 H   0  0  0  0  0  0  0  0  0  0  0  0
    1.6946    1.0434   -0.4313 H   0  0  0  0  0  0  0  0  0  0  0  0
    0.8088    0.9457   -1.9561 H   0  0  0  0  0  0  0  0  0  0  0  0
   -0.4485    1.1299    0.8343 H   0  0  0  0  0  0  0  0  0  0  0  0
   -1.3558    1.0623   -0.6785 H   0  0  0  0  0  0  0  0  0  0  0  0
   -0.3529   -1.1663   -1.1950 H   0  0  0  0  0  0  0  0  0  0  0  0
    0.5895   -1.0974    0.2958 H   0  0  0  0  0  0  0  0  0  0  0  0
   -1.5162   -1.0149    1.6376 H   0  0  0  0  0  0  0  0  0  0  0  0
   -2.4726   -1.0446    0.1544 H   0  0  0  0  0  0  0  0  0  0  0  0
   -1.5158   -3.2763   -0.4324 H   0  0  0  0  0  0  0  0  0  0  0  0
   -0.5242   -3.2448    1.0273 H   0  0  0  0  0  0  0  0  0  0  0  0
   -3.5935   -3.1974    0.9663 H   0  0  0  0  0  0  0  0  0  0  0  0
   -2.6282   -3.1173    2.4247 H   0  0  0  0  0  0  0  0  0  0  0  0
   -2.6096   -5.4451    0.4261 H   0  0  0  0  0  0  0  0  0  0  0  0
   -1.6431   -5.3641    1.9216 H   0  0  0  0  0  0  0  0  0  0  0  0
    2.0592    7.3290   -2.1702 H   0  0  0  0  0  0  0  0  0  0  0  0
   -5.6640   -6.2509    3.5048 H   0  0  0  0  0  0  0  0  0  0  0  0
  1  3  1  0  0  0  0
  1 13  2  0  0  0  0
  1 15  1  0  0  0  0
  2 14  2  0  0  0  0
  2 16  1  0  0  0  0
  2 17  1  0  0  0  0
  3  4  1  0  0  0  0
  3 18  1  0  0  0  0
  3 19  1  0  0  0  0
  4  5  1  0  0  0  0
  4 20  1  0  0  0  0
  4 21  1  0  0  0  0
  5  6  1  0  0  0  0
  5 22  1  0  0  0  0
  5 23  1  0  0  0  0
  6  7  1  0  0  0  0
  6 24  1  0  0  0  0
  6 25  1  0  0  0  0
  7  8  1  0  0  0  0
  7 26  1  0  0  0  0
  7 27  1  0  0  0  0
  8  9  1  0  0  0  0
  8 28  1  0  0  0  0
  8 29  1  0  0  0  0
  9 10  1  0  0  0  0
  9 30  1  0  0  0  0
  9 31  1  0  0  0  0
 10 11  1  0  0  0  0
 10 32  1  0  0  0  0
 10 33  1  0  0  0  0
 11 12  1  0  0  0  0
 11 34  1  0  0  0  0
 11 35  1  0  0  0  0
 12 16  1  0  0  0  0
 12 36  1  0  0  0  0
 12 37  1  0  0  0  0
 15 38  1  0  0  0  0
 17 39  1  0  0  0  0
M  END
$$$$
DrugBank_1642
 OpenBabel01151909533D

 72 76  0  0  1  0  0  0  0  0999 V2000
    2.5338  -12.9398    4.6942 C   0  0  0  0  0  0  0  0  0  0  0  0
    2.6201   -9.0103   -5.3624 C   0  0  0  0  0  0  0  0  0  0  0  0
    1.8663  -12.0161    3.8955 C   0  0  0  0  0  0  0  0  0  0  0  0
    1.8471   -9.6185   -4.3778 C   0  0  0  0  0  0  0  0  0  0  0  0
    3.1519  -12.5253    5.8742 C   0  0  0  0  0  0  0  0  0  0  0  0
    3.8257   -8.3954   -5.0234 C   0  0  0  0  0  0  0  0  0  0  0  0
    1.8143  -10.6742    4.2738 C   0  0  0  0  0  0  0  0  0  0  0  0
    2.2767   -9.6143   -3.0505 C   0  0  0  0  0  0  0  0  0  0  0  0
    3.7262  -10.7438    7.4550 C   0  0  0  0  0  0  0  0  0  0  0  0
    5.4844   -7.7673   -3.3331 C   0  0  0  0  0  0  0  0  0  0  0  0
    3.6693   -5.7733    4.4506 C   0  0  0  0  0  0  0  0  0  0  0  0
    3.8380   -5.9833    3.0821 C   0  0  0  0  0  0  0  0  0  0  0  0
    3.6743   -9.4019    7.8334 C   0  0  0  0  0  0  0  0  0  0  0  0
    5.9140   -7.7629   -2.0058 C   0  0  0  0  0  0  0  0  0  0  0  0
    2.3887   -8.8926    5.8546 C   0  0  0  0  0  0  0  0  0  0  0  0
    3.9354   -8.9861   -1.3602 C   0  0  0  0  0  0  0  0  0  0  0  0
    5.7554   -7.3823    3.5330 C   0  0  0  0  0  0  0  0  0  0  0  0
    3.1097  -11.1787    6.2705 C   0  0  0  0  0  0  0  0  0  0  0  0
    4.2736   -8.3815   -3.6924 C   0  0  0  0  0  0  0  0  0  0  0  0
    2.4309  -10.2392    5.4583 C   0  0  0  0  0  0  0  0  0  0  0  0
    3.4875   -9.0000   -2.6912 C   0  0  0  0  0  0  0  0  0  0  0  0
    5.5867   -7.1723    4.9017 C   0  0  0  0  0  0  0  0  0  0  0  0
    4.5437   -6.3678    5.3605 C   0  0  0  0  0  0  0  0  0  0  0  0
    4.8810   -6.7878    2.6232 C   0  0  0  0  0  0  0  0  0  0  0  0
    3.0068   -8.4781    7.0347 C   0  0  0  0  0  0  0  0  0  0  0  0
    5.1410   -8.3711   -1.0212 C   0  0  0  0  0  0  0  0  0  0  0  0
    6.5153   -7.8081    5.8274 C   0  0  0  0  0  0  0  0  0  0  0  0
    7.5364   -6.5135    9.0881 C   0  0  0  0  0  0  0  0  0  0  0  0
    9.9956   -7.9235    6.4591 C   0  0  0  0  0  0  0  0  0  0  0  0
    8.0014   -5.7973    5.6741 C   0  0  0  0  0  0  0  0  0  0  0  0
    8.8329   -6.7649    8.3470 C   0  0  0  0  0  0  0  0  0  0  0  0
    8.6550   -7.6802    7.1324 C   0  0  1  0  0  0  0  0  0  0  0  0
    4.3499   -6.1382    6.7669 N   0  0  0  0  0  0  0  0  0  0  0  0
    7.6826   -7.1183    6.1975 N   0  0  0  0  0  0  0  0  0  0  0  0
    6.2059   -8.9298    6.2469 O   0  0  0  0  0  0  0  0  0  0  0  0
    6.5873   -7.2827    9.1439 O   0  0  0  0  0  0  0  0  0  0  0  0
   11.0636   -7.9526    7.0587 O   0  0  0  0  0  0  0  0  0  0  0  0
    3.1247   -6.7399    8.9558 O   0  0  0  0  0  0  0  0  0  0  0  0
    1.7526   -6.1937    6.9264 O   0  0  0  0  0  0  0  0  0  0  0  0
    5.0562   -9.5143    1.2778 O   0  0  0  0  0  0  0  0  0  0  0  0
    7.1298   -8.2113    0.6247 O   0  0  0  0  0  0  0  0  0  0  0  0
    7.5435   -5.3004    9.7007 O   0  0  0  0  0  0  0  0  0  0  0  0
    9.9004   -8.1028    5.1198 O   0  0  0  0  0  0  0  0  0  0  0  0
    5.0453   -6.9933    1.2880 O   0  0  0  0  0  0  0  0  0  0  0  0
    2.9432   -6.7989    7.5103 S   0  0  0  0  0  0  0  0  0  0  0  0
    5.6872   -8.3643    0.6593 S   0  0  0  0  0  0  0  0  0  0  0  0
    2.5730  -13.9845    4.3994 H   0  0  0  0  0  0  0  0  0  0  0  0
    2.2854   -9.0149   -6.3957 H   0  0  0  0  0  0  0  0  0  0  0  0
    1.3843  -12.3398    2.9777 H   0  0  0  0  0  0  0  0  0  0  0  0
    0.9094  -10.0981   -4.6428 H   0  0  0  0  0  0  0  0  0  0  0  0
    3.6679  -13.2648    6.4832 H   0  0  0  0  0  0  0  0  0  0  0  0
    4.4139   -7.9263   -5.8094 H   0  0  0  0  0  0  0  0  0  0  0  0
    1.2868   -9.9698    3.6342 H   0  0  0  0  0  0  0  0  0  0  0  0
    1.6563  -10.0960   -2.2976 H   0  0  0  0  0  0  0  0  0  0  0  0
    4.2525  -11.4486    8.0952 H   0  0  0  0  0  0  0  0  0  0  0  0
    6.1052   -7.2868   -4.0863 H   0  0  0  0  0  0  0  0  0  0  0  0
    2.8531   -5.1444    4.7969 H   0  0  0  0  0  0  0  0  0  0  0  0
    3.1540   -5.5178    2.3776 H   0  0  0  0  0  0  0  0  0  0  0  0
    4.1595   -9.0891    8.7542 H   0  0  0  0  0  0  0  0  0  0  0  0
    6.8544   -7.2807   -1.7520 H   0  0  0  0  0  0  0  0  0  0  0  0
    1.8687   -8.1614    5.2380 H   0  0  0  0  0  0  0  0  0  0  0  0
    3.3393   -9.4595   -0.5819 H   0  0  0  0  0  0  0  0  0  0  0  0
    6.5655   -8.0103    3.1693 H   0  0  0  0  0  0  0  0  0  0  0  0
    7.5801   -5.0246    6.3224 H   0  0  0  0  0  0  0  0  0  0  0  0
    7.5864   -5.6786    4.6695 H   0  0  0  0  0  0  0  0  0  0  0  0
    9.0851   -5.6621    5.6239 H   0  0  0  0  0  0  0  0  0  0  0  0
    9.2111   -5.7859    8.0287 H   0  0  0  0  0  0  0  0  0  0  0  0
    9.5538   -7.2037    9.0475 H   0  0  0  0  0  0  0  0  0  0  0  0
    8.2640   -8.6619    7.4223 H   0  0  0  0  0  0  0  0  0  0  0  0
    5.2106   -6.1610    7.3295 H   0  0  0  0  0  0  0  0  0  0  0  0
    8.3660   -4.7794    9.5784 H   0  0  0  0  0  0  0  0  0  0  0  0
    8.9720   -8.0480    4.8076 H   0  0  0  0  0  0  0  0  0  0  0  0
  1  3  2  0  0  0  0
  1  5  1  0  0  0  0
  1 47  1  0  0  0  0
  2  4  2  0  0  0  0
  2  6  1  0  0  0  0
  2 48  1  0  0  0  0
  3  7  1  0  0  0  0
  3 49  1  0  0  0  0
  4  8  1  0  0  0  0
  4 50  1  0  0  0  0
  5 18  2  0  0  0  0
  5 51  1  0  0  0  0
  6 19  2  0  0  0  0
  6 52  1  0  0  0  0
  7 20  2  0  0  0  0
  7 53  1  0  0  0  0
  8 21  2  0  0  0  0
  8 54  1  0  0  0  0
  9 13  2  0  0  0  0
  9 18  1  0  0  0  0
  9 55  1  0  0  0  0
 10 14  2  0  0  0  0
 10 19  1  0  0  0  0
 10 56  1  0  0  0  0
 11 12  2  0  0  0  0
 11 23  1  0  0  0  0
 11 57  1  0  0  0  0
 12 24  1  0  0  0  0
 12 58  1  0  0  0  0
 13 25  1  0  0  0  0
 13 59  1  0  0  0  0
 14 26  1  0  0  0  0
 14 60  1  0  0  0  0
 15 20  1  0  0  0  0
 15 25  2  0  0  0  0
 15 61  1  0  0  0  0
 16 21  1  0  0  0  0
 16 26  2  0  0  0  0
 16 62  1  0  0  0  0
 17 22  1  0  0  0  0
 17 24  2  0  0  0  0
 17 63  1  0  0  0  0
 18 20  1  0  0  0  0
 19 21  1  0  0  0  0
 22 23  2  0  0  0  0
 22 27  1  0  0  0  0
 23 33  1  0  0  0  0
 24 44  1  0  0  0  0
 25 45  1  0  0  0  0
 26 46  1  0  0  0  0
 27 34  1  0  0  0  0
 27 35  2  0  0  0  0
 28 31  1  0  0  0  0
 28 36  2  0  0  0  0
 28 42  1  0  0  0  0
 29 32  1  0  0  0  0
 29 37  2  0  0  0  0
 29 43  1  0  0  0  0
 30 34  1  0  0  0  0
 30 64  1  0  0  0  0
 30 65  1  0  0  0  0
 30 66  1  0  0  0  0
 31 32  1  0  0  0  0
 31 67  1  0  0  0  0
 31 68  1  0  0  0  0
 32 34  1  0  0  0  0
 32 69  1  1  0  0  0
 33 45  1  0  0  0  0
 33 70  1  0  0  0  0
 38 45  2  0  0  0  0
 39 45  2  0  0  0  0
 40 46  2  0  0  0  0
 41 46  2  0  0  0  0
 42 71  1  0  0  0  0
 43 72  1  0  0  0  0
 44 46  1  0  0  0  0
M  END
$$$$
DrugBank_1659
 OpenBabel01151909533D

 50 55  0  0  0  0  0  0  0  0999 V2000
    3.7107   -6.2785   -5.2592 C   0  0  0  0  0  0  0  0  0  0  0  0
    2.4479   -5.6868   -5.2321 C   0  0  0  0  0  0  0  0  0  0  0  0
    4.7224   -5.8016   -4.4256 C   0  0  0  0  0  0  0  0  0  0  0  0
    3.3640    4.5828    3.5256 C   0  0  0  0  0  0  0  0  0  0  0  0
    4.6827    4.2831    3.2019 C   0  0  0  0  0  0  0  0  0  0  0  0
   -2.7532    0.5042    1.9304 C   0  0  0  0  0  0  0  0  0  0  0  0
    2.1967   -4.6181   -4.3716 C   0  0  0  0  0  0  0  0  0  0  0  0
    4.4712   -4.7329   -3.5650 C   0  0  0  0  0  0  0  0  0  0  0  0
    2.3126    3.8381    2.9834 C   0  0  0  0  0  0  0  0  0  0  0  0
   -1.6947   -0.1661    1.3164 C   0  0  0  0  0  0  0  0  0  0  0  0
    4.9862    3.2343    2.3302 C   0  0  0  0  0  0  0  0  0  0  0  0
   -1.0073    1.8883    0.2459 C   0  0  0  0  0  0  0  0  0  0  0  0
   -2.9402    1.8724    1.7013 C   0  0  0  0  0  0  0  0  0  0  0  0
   -2.0684    2.5636    0.8601 C   0  0  0  0  0  0  0  0  0  0  0  0
    3.2084   -4.1412   -3.5380 C   0  0  0  0  0  0  0  0  0  0  0  0
    2.5914    2.7730    2.0997 C   0  0  0  0  0  0  0  0  0  0  0  0
   -0.8235    0.5246    0.4759 C   0  0  0  0  0  0  0  0  0  0  0  0
    3.9251    2.4906    1.7891 C   0  0  0  0  0  0  0  0  0  0  0  0
    1.4568   -1.5041   -1.3120 C   0  0  0  0  0  0  0  0  0  0  0  0
    2.2714    1.0705    0.7336 C   0  0  0  0  0  0  0  0  0  0  0  0
   -4.0604    2.5791    2.3514 C   0  0  0  0  0  0  0  0  0  0  0  0
   -2.2611    4.0056    0.6149 C   0  0  0  0  0  0  0  0  0  0  0  0
    2.9436   -3.0122   -2.6287 C   0  0  0  0  0  0  0  0  0  0  0  0
    1.7096   -2.5766   -2.1999 C   0  0  0  0  0  0  0  0  0  0  0  0
    1.6562    1.9514    1.4875 N   0  0  0  0  0  0  0  0  0  0  0  0
    2.4115   -0.7344   -0.7434 N   0  0  0  0  0  0  0  0  0  0  0  0
    0.1214   -1.2266   -1.0054 N   0  0  0  0  0  0  0  0  0  0  0  0
    1.6523    0.1037   -0.0157 N   0  0  0  0  0  0  0  0  0  0  0  0
    0.2570   -0.1632   -0.1488 N   0  0  0  0  0  0  0  0  0  0  0  0
   -4.1803    3.9225    2.0807 N   0  0  0  0  0  0  0  0  0  0  0  0
   -3.3234    4.6017    1.2540 N   0  0  0  0  0  0  0  0  0  0  0  0
   -4.8313    1.9747    3.0917 O   0  0  0  0  0  0  0  0  0  0  0  0
   -1.4967    4.6185   -0.1251 O   0  0  0  0  0  0  0  0  0  0  0  0
    3.9795    1.1558    0.6991 S   0  0  0  0  0  0  0  0  0  0  0  0
    3.9060   -7.1113   -5.9283 H   0  0  0  0  0  0  0  0  0  0  0  0
    1.6597   -6.0587   -5.8803 H   0  0  0  0  0  0  0  0  0  0  0  0
    5.7054   -6.2630   -4.4457 H   0  0  0  0  0  0  0  0  0  0  0  0
    3.1469    5.4029    4.2045 H   0  0  0  0  0  0  0  0  0  0  0  0
    5.4892    4.8710    3.6327 H   0  0  0  0  0  0  0  0  0  0  0  0
   -3.4194   -0.0558    2.5812 H   0  0  0  0  0  0  0  0  0  0  0  0
    1.2072   -4.1671   -4.3619 H   0  0  0  0  0  0  0  0  0  0  0  0
    5.2701   -4.3725   -2.9213 H   0  0  0  0  0  0  0  0  0  0  0  0
    1.2860    4.0804    3.2439 H   0  0  0  0  0  0  0  0  0  0  0  0
   -1.5546   -1.2283    1.4985 H   0  0  0  0  0  0  0  0  0  0  0  0
    6.0181    3.0044    2.0835 H   0  0  0  0  0  0  0  0  0  0  0  0
   -0.3182    2.4109   -0.4128 H   0  0  0  0  0  0  0  0  0  0  0  0
    3.8297   -2.5090   -2.2494 H   0  0  0  0  0  0  0  0  0  0  0  0
    0.8362   -3.1556   -2.5762 H   0  0  0  0  0  0  0  0  0  0  0  0
   -4.9257    4.4753    2.4913 H   0  0  0  0  0  0  0  0  0  0  0  0
   -3.5182    5.5905    1.1355 H   0  0  0  0  0  0  0  0  0  0  0  0
  1  2  2  0  0  0  0
  1  3  1  0  0  0  0
  1 35  1  0  0  0  0
  2  7  1  0  0  0  0
  2 36  1  0  0  0  0
  3  8  2  0  0  0  0
  3 37  1  0  0  0  0
  4  5  2  0  0  0  0
  4  9  1  0  0  0  0
  4 38  1  0  0  0  0
  5 11  1  0  0  0  0
  5 39  1  0  0  0  0
  6 10  2  0  0  0  0
  6 13  1  0  0  0  0
  6 40  1  0  0  0  0
  7 15  2  0  0  0  0
  7 41  1  0  0  0  0
  8 15  1  0  0  0  0
  8 42  1  0  0  0  0
  9 16  2  0  0  0  0
  9 43  1  0  0  0  0
 10 17  1  0  0  0  0
 10 44  1  0  0  0  0
 11 18  2  0  0  0  0
 11 45  1  0  0  0  0
 12 14  1  0  0  0  0
 12 17  2  0  0  0  0
 12 46  1  0  0  0  0
 13 14  2  0  0  0  0
 13 21  1  0  0  0  0
 14 22  1  0  0  0  0
 15 23  1  0  0  0  0
 16 18  1  0  0  0  0
 16 25  1  0  0  0  0
 17 29  1  0  0  0  0
 18 34  1  0  0  0  0
 19 24  1  0  0  0  0
 19 26  2  0  0  0  0
 19 27  1  0  0  0  0
 20 25  2  0  0  0  0
 20 28  1  0  0  0  0
 20 34  1  0  0  0  0
 21 30  1  0  0  0  0
 21 32  2  0  0  0  0
 22 31  1  0  0  0  0
 22 33  2  0  0  0  0
 23 24  2  0  0  0  0
 23 47  1  0  0  0  0
 24 48  1  0  0  0  0
 26 28  1  0  0  0  0
 27 29  2  0  0  0  0
 28 29  1  0  0  0  0
 30 31  1  0  0  0  0
 30 49  1  0  0  0  0
 31 50  1  0  0  0  0
M  END
$$$$
DrugBank_1661
 OpenBabel01151909533D

 26 26  0  0  1  0  0  0  0  0999 V2000
    3.5250   -1.4102    3.5359 C   0  0  0  0  0  0  0  0  0  0  0  0
    5.1357   -0.9298    2.0953 C   0  0  0  0  0  0  0  0  0  0  0  0
    2.9408   -1.0603    2.3513 C   0  0  0  0  0  0  0  0  0  0  0  0
    0.6450   -3.2647    2.5231 C   0  0  0  0  0  0  0  0  0  0  0  0
    1.4847   -0.9748    1.9614 C   0  0  0  0  0  0  0  0  0  0  0  0
    0.9394   -2.2908    1.3916 C   0  0  2  0  0  0  0  0  0  0  0  0
    3.9607   -0.7676    1.4783 N   0  0  0  0  0  0  0  0  0  0  0  0
    4.8833   -1.3209    3.3486 N   0  0  0  0  0  0  0  0  0  0  0  0
   -0.2330   -2.0614    0.5848 N   0  0  0  0  0  0  0  0  0  0  0  0
   -0.4368   -3.3110    3.0994 O   0  0  0  0  0  0  0  0  0  0  0  0
    3.0738   -1.1874   -1.1451 O   0  0  0  0  0  0  0  0  0  0  0  0
    1.6706   -4.0887    2.8457 O   0  0  0  0  0  0  0  0  0  0  0  0
    3.0877    1.2071   -0.1279 O   0  0  0  0  0  0  0  0  0  0  0  0
    5.2801    0.1158   -0.6939 O   0  0  0  0  0  0  0  0  0  0  0  0
    3.7869   -0.2746   -0.1436 P   0  0  0  0  0  0  0  0  0  0  0  0
    3.1780   -1.7155    4.5031 H   0  0  0  0  0  0  0  0  0  0  0  0
    6.1110   -0.7745    1.6643 H   0  0  0  0  0  0  0  0  0  0  0  0
    1.3759   -0.1653    1.2273 H   0  0  0  0  0  0  0  0  0  0  0  0
    0.8866   -0.6613    2.8279 H   0  0  0  0  0  0  0  0  0  0  0  0
    1.6714   -2.7759    0.7356 H   0  0  0  0  0  0  0  0  0  0  0  0
    5.5890   -1.5204    4.0520 H   0  0  0  0  0  0  0  0  0  0  0  0
   -0.8946   -2.8092    0.4619 H   0  0  0  0  0  0  0  0  0  0  0  0
   -0.2705   -1.2435    0.0003 H   0  0  0  0  0  0  0  0  0  0  0  0
    2.4855   -3.9588    2.3164 H   0  0  0  0  0  0  0  0  0  0  0  0
    3.0551    1.7524   -0.9426 H   0  0  0  0  0  0  0  0  0  0  0  0
    5.3899    0.5901   -1.5453 H   0  0  0  0  0  0  0  0  0  0  0  0
  1  3  2  0  0  0  0
  1  8  1  0  0  0  0
  1 16  1  0  0  0  0
  2  7  1  0  0  0  0
  2  8  2  0  0  0  0
  2 17  1  0  0  0  0
  3  5  1  0  0  0  0
  3  7  1  0  0  0  0
  4  6  1  0  0  0  0
  4 10  2  0  0  0  0
  4 12  1  0  0  0  0
  5  6  1  0  0  0  0
  5 18  1  0  0  0  0
  5 19  1  0  0  0  0
  6  9  1  0  0  0  0
  6 20  1  6  0  0  0
  7 15  1  0  0  0  0
  8 21  1  0  0  0  0
  9 22  1  0  0  0  0
  9 23  1  0  0  0  0
 11 15  2  0  0  0  0
 12 24  1  0  0  0  0
 13 15  1  0  0  0  0
 13 25  1  0  0  0  0
 14 15  1  0  0  0  0
 14 26  1  0  0  0  0
M  END
$$$$
DrugBank_1668
 OpenBabel01151909533D

 81 84  0  0  1  0  0  0  0  0999 V2000
    8.1346   -4.1330   -2.6118 C   0  0  0  0  0  0  0  0  0  0  0  0
    7.3190   -5.1372   -2.0903 C   0  0  0  0  0  0  0  0  0  0  0  0
    7.6090   -2.8642   -2.8561 C   0  0  0  0  0  0  0  0  0  0  0  0
    5.9778   -4.8727   -1.8132 C   0  0  0  0  0  0  0  0  0  0  0  0
    6.2678   -2.5997   -2.5790 C   0  0  0  0  0  0  0  0  0  0  0  0
    3.3665   -2.3830   -2.5226 C   0  0  0  0  0  0  0  0  0  0  0  0
    3.4144   -4.0125   -0.7394 C   0  0  0  0  0  0  0  0  0  0  0  0
    2.0253   -2.1189   -2.2452 C   0  0  0  0  0  0  0  0  0  0  0  0
    2.0731   -3.7483   -0.4621 C   0  0  0  0  0  0  0  0  0  0  0  0
   -0.2292    5.6470   -4.1907 C   0  0  0  0  0  0  0  0  0  0  0  0
   -0.2236    6.2767   -5.4353 C   0  0  0  0  0  0  0  0  0  0  0  0
   -1.9387    7.1735   -3.4261 C   0  0  0  0  0  0  0  0  0  0  0  0
    5.4522   -3.6039   -2.0575 C   0  0  0  0  0  0  0  0  0  0  0  0
    4.0611   -3.3298   -1.7697 C   0  0  0  0  0  0  0  0  0  0  0  0
    1.3786   -2.8015   -1.2150 C   0  0  0  0  0  0  0  0  0  0  0  0
   -1.0868    6.0954   -3.1861 C   0  0  0  0  0  0  0  0  0  0  0  0
   -1.0755    7.3548   -5.6753 C   0  0  0  0  0  0  0  0  0  0  0  0
   -1.9331    7.8032   -4.6707 C   0  0  0  0  0  0  0  0  0  0  0  0
   -0.4696   -0.0798   -0.9401 C   0  0  0  0  0  0  0  0  0  0  0  0
   -4.5575    4.0188   -1.9929 C   0  0  0  0  0  0  0  0  0  0  0  0
   -1.7478    3.3303   -0.6034 C   0  0  0  0  0  0  0  0  0  0  0  0
   -2.0099    8.0055   -9.0950 C   0  0  0  0  0  0  0  0  0  0  0  0
    1.0670    0.8575    1.8433 C   0  0  0  0  0  0  0  0  0  0  0  0
    1.1337   -0.6660    1.7670 C   0  0  0  0  0  0  0  0  0  0  0  0
    0.8150    1.5524    0.5064 C   0  0  0  0  0  0  0  0  0  0  0  0
   -0.1507   -1.3005    1.2451 C   0  0  0  0  0  0  0  0  0  0  0  0
   -0.5394    1.2048   -0.1138 C   0  0  1  0  0  0  0  0  0  0  0  0
   -5.8558    4.6798   -1.6680 C   0  0  0  0  0  0  0  0  0  0  0  0
   -1.0916    5.4137   -1.8396 C   0  0  0  0  0  0  0  0  0  0  0  0
   -0.0652   -2.5174   -0.9166 C   0  0  0  0  0  0  0  0  0  0  0  0
   -1.3822    7.1557   -8.0253 C   0  0  0  0  0  0  0  0  0  0  0  0
   -2.0927    4.2551   -1.7653 C   0  0  2  0  0  0  0  0  0  0  0  0
   -0.2384   -1.2514   -0.2154 N   0  0  0  0  0  0  0  0  0  0  0  0
   -0.9661    2.2567   -1.0076 N   0  0  0  0  0  0  0  0  0  0  0  0
   -3.4429    4.7148   -1.5581 N   0  0  0  0  0  0  0  0  0  0  0  0
   -0.5865   -0.0562   -2.1683 O   0  0  0  0  0  0  0  0  0  0  0  0
   -4.5569    2.9511   -2.5943 O   0  0  0  0  0  0  0  0  0  0  0  0
   -2.1614    3.5098    0.5401 O   0  0  0  0  0  0  0  0  0  0  0  0
   -2.2415    9.2024   -9.0132 O   0  0  0  0  0  0  0  0  0  0  0  0
   -3.9144    9.5939   -3.8263 O   0  0  0  0  0  0  0  0  0  0  0  0
   -2.2906    7.2516  -10.1877 O   0  0  0  0  0  0  0  0  0  0  0  0
   -2.0660   10.3639   -5.4872 O   0  0  0  0  0  0  0  0  0  0  0  0
   -3.8419    8.7798   -6.2964 O   0  0  0  0  0  0  0  0  0  0  0  0
   -1.0613    7.9628   -6.8936 O   0  0  0  0  0  0  0  0  0  0  0  0
   -3.0212    9.1683   -4.9539 P   0  0  0  0  0  0  0  0  0  0  0  0
    9.1793   -4.3387   -2.8260 H   0  0  0  0  0  0  0  0  0  0  0  0
    7.7284   -6.1246   -1.8985 H   0  0  0  0  0  0  0  0  0  0  0  0
    8.2439   -2.0814   -3.2608 H   0  0  0  0  0  0  0  0  0  0  0  0
    5.3549   -5.6660   -1.4066 H   0  0  0  0  0  0  0  0  0  0  0  0
    5.8723   -1.6057   -2.7740 H   0  0  0  0  0  0  0  0  0  0  0  0
    3.8565   -1.8430   -3.3293 H   0  0  0  0  0  0  0  0  0  0  0  0
    3.9424   -4.7529   -0.1432 H   0  0  0  0  0  0  0  0  0  0  0  0
    1.4917   -1.3804   -2.8377 H   0  0  0  0  0  0  0  0  0  0  0  0
    1.5772   -4.2845    0.3429 H   0  0  0  0  0  0  0  0  0  0  0  0
    0.4381    4.8078   -4.0131 H   0  0  0  0  0  0  0  0  0  0  0  0
    0.4467    5.9211   -6.2132 H   0  0  0  0  0  0  0  0  0  0  0  0
   -2.6081    7.5259   -2.6455 H   0  0  0  0  0  0  0  0  0  0  0  0
    0.2887    1.1527    2.5582 H   0  0  0  0  0  0  0  0  0  0  0  0
    2.0160    1.2248    2.2530 H   0  0  0  0  0  0  0  0  0  0  0  0
    1.9896   -0.9723    1.1534 H   0  0  0  0  0  0  0  0  0  0  0  0
    1.3188   -1.0409    2.7811 H   0  0  0  0  0  0  0  0  0  0  0  0
    0.8684    2.6344    0.6857 H   0  0  0  0  0  0  0  0  0  0  0  0
    1.6295    1.3158   -0.1904 H   0  0  0  0  0  0  0  0  0  0  0  0
   -0.1858   -2.3517    1.5552 H   0  0  0  0  0  0  0  0  0  0  0  0
   -1.0342   -0.8156    1.6737 H   0  0  0  0  0  0  0  0  0  0  0  0
   -1.3266    1.1260    0.6421 H   0  0  0  0  0  0  0  0  0  0  0  0
   -6.1885    5.3666   -2.4628 H   0  0  0  0  0  0  0  0  0  0  0  0
   -6.6774    3.9557   -1.5463 H   0  0  0  0  0  0  0  0  0  0  0  0
   -5.8606    5.2810   -0.7447 H   0  0  0  0  0  0  0  0  0  0  0  0
   -0.0798    5.0580   -1.6021 H   0  0  0  0  0  0  0  0  0  0  0  0
   -1.3191    6.1669   -1.0737 H   0  0  0  0  0  0  0  0  0  0  0  0
   -0.6493   -2.4729   -1.8423 H   0  0  0  0  0  0  0  0  0  0  0  0
   -0.5007   -3.3067   -0.2949 H   0  0  0  0  0  0  0  0  0  0  0  0
   -0.4564    6.7176   -8.4073 H   0  0  0  0  0  0  0  0  0  0  0  0
   -2.0741    6.3678   -7.7157 H   0  0  0  0  0  0  0  0  0  0  0  0
   -2.0995    3.6751   -2.6957 H   0  0  0  0  0  0  0  0  0  0  0  0
   -0.6796    2.2082   -1.9811 H   0  0  0  0  0  0  0  0  0  0  0  0
   -3.5838    5.5950   -1.0677 H   0  0  0  0  0  0  0  0  0  0  0  0
   -2.0313    6.3137  -10.0619 H   0  0  0  0  0  0  0  0  0  0  0  0
   -2.4877   11.1760   -5.8406 H   0  0  0  0  0  0  0  0  0  0  0  0
   -4.4048    9.4658   -6.7141 H   0  0  0  0  0  0  0  0  0  0  0  0
  1  2  2  0  0  0  0
  1  3  1  0  0  0  0
  1 46  1  0  0  0  0
  2  4  1  0  0  0  0
  2 47  1  0  0  0  0
  3  5  2  0  0  0  0
  3 48  1  0  0  0  0
  4 13  2  0  0  0  0
  4 49  1  0  0  0  0
  5 13  1  0  0  0  0
  5 50  1  0  0  0  0
  6  8  2  0  0  0  0
  6 14  1  0  0  0  0
  6 51  1  0  0  0  0
  7  9  1  0  0  0  0
  7 14  2  0  0  0  0
  7 52  1  0  0  0  0
  8 15  1  0  0  0  0
  8 53  1  0  0  0  0
  9 15  2  0  0  0  0
  9 54  1  0  0  0  0
 10 11  2  0  0  0  0
 10 16  1  0  0  0  0
 10 55  1  0  0  0  0
 11 17  1  0  0  0  0
 11 56  1  0  0  0  0
 12 16  2  0  0  0  0
 12 18  1  0  0  0  0
 12 57  1  0  0  0  0
 13 14  1  0  0  0  0
 15 30  1  0  0  0  0
 16 29  1  0  0  0  0
 17 18  2  0  0  0  0
 17 44  1  0  0  0  0
 18 45  1  0  0  0  0
 19 27  1  0  0  0  0
 19 33  1  0  0  0  0
 19 36  2  0  0  0  0
 20 28  1  0  0  0  0
 20 35  1  0  0  0  0
 20 37  2  0  0  0  0
 21 32  1  0  0  0  0
 21 34  1  0  0  0  0
 21 38  2  0  0  0  0
 22 31  1  0  0  0  0
 22 39  2  0  0  0  0
 22 41  1  0  0  0  0
 23 24  1  0  0  0  0
 23 25  1  0  0  0  0
 23 58  1  0  0  0  0
 23 59  1  0  0  0  0
 24 26  1  0  0  0  0
 24 60  1  0  0  0  0
 24 61  1  0  0  0  0
 25 27  1  0  0  0  0
 25 62  1  0  0  0  0
 25 63  1  0  0  0  0
 26 33  1  0  0  0  0
 26 64  1  0  0  0  0
 26 65  1  0  0  0  0
 27 34  1  0  0  0  0
 27 66  1  1  0  0  0
 28 67  1  0  0  0  0
 28 68  1  0  0  0  0
 28 69  1  0  0  0  0
 29 32  1  0  0  0  0
 29 70  1  0  0  0  0
 29 71  1  0  0  0  0
 30 33  1  0  0  0  0
 30 72  1  0  0  0  0
 30 73  1  0  0  0  0
 31 44  1  0  0  0  0
 31 74  1  0  0  0  0
 31 75  1  0  0  0  0
 32 35  1  0  0  0  0
 32 76  1  6  0  0  0
 34 77  1  0  0  0  0
 35 78  1  0  0  0  0
 40 45  2  0  0  0  0
 41 79  1  0  0  0  0
 42 45  1  0  0  0  0
 42 80  1  0  0  0  0
 43 45  1  0  0  0  0
 43 81  1  0  0  0  0
M  END
$$$$
DrugBank_1674
 OpenBabel01151909533D

 15 14  0  0  1  0  0  0  0  0999 V2000
    1.3901   -0.8567   -2.2288 C   0  0  0  0  0  0  0  0  0  0  0  0
    1.0762   -0.1070    0.1717 C   0  0  0  0  0  0  0  0  0  0  0  0
    1.6646   -1.1642   -0.7661 C   0  0  2  0  0  0  0  0  0  0  0  0
    3.0671   -1.3858   -0.5167 N   0  0  0  0  0  0  0  0  0  0  0  0
    2.2686   -0.7045   -3.0690 O   0  0  0  0  0  0  0  0  0  0  0  0
    0.0705   -0.7507   -2.5153 O   0  0  0  0  0  0  0  0  0  0  0  0
    0.8560    2.3506    1.0645 O   0  0  0  0  0  0  0  0  0  0  0  0
    1.7254    1.5729   -0.1153 S   0  0  0  0  0  0  0  0  0  0  0  0
    1.2975   -0.3684    1.2121 H   0  0  0  0  0  0  0  0  0  0  0  0
   -0.0128   -0.0644    0.0646 H   0  0  0  0  0  0  0  0  0  0  0  0
    1.1803   -2.1267   -0.5620 H   0  0  0  0  0  0  0  0  0  0  0  0
    3.6333   -1.7916   -1.2423 H   0  0  0  0  0  0  0  0  0  0  0  0
    3.4101   -1.3255    0.4270 H   0  0  0  0  0  0  0  0  0  0  0  0
   -0.4898   -0.9028   -1.7246 H   0  0  0  0  0  0  0  0  0  0  0  0
   -0.1112    2.2493    0.9020 H   0  0  0  0  0  0  0  0  0  0  0  0
  1  3  1  0  0  0  0
  1  5  2  0  0  0  0
  1  6  1  0  0  0  0
  2  3  1  0  0  0  0
  2  8  1  0  0  0  0
  2  9  1  0  0  0  0
  2 10  1  0  0  0  0
  3  4  1  0  0  0  0
  3 11  1  1  0  0  0
  4 12  1  0  0  0  0
  4 13  1  0  0  0  0
  6 14  1  0  0  0  0
  7  8  1  0  0  0  0
  7 15  1  0  0  0  0
M  END
$$$$
DrugBank_4301
 OpenBabel01151909533D

 30 31  0  0  0  0  0  0  0  0999 V2000
    1.9290   -1.0177   -0.1104 C   0  0  0  0  0  0  0  0  0  0  0  0
    1.9939    0.1707    0.6169 C   0  0  0  0  0  0  0  0  0  0  0  0
    1.7993   -2.2367    0.5553 C   0  0  0  0  0  0  0  0  0  0  0  0
    1.9293    0.1403    2.0099 C   0  0  0  0  0  0  0  0  0  0  0  0
    1.8306   -0.0821    6.2927 C   0  0  0  0  0  0  0  0  0  0  0  0
    0.2029    0.6944    4.6851 C   0  0  0  0  0  0  0  0  0  0  0  0
    1.7347   -2.2671    1.9483 C   0  0  0  0  0  0  0  0  0  0  0  0
    1.7997   -1.0786    2.6757 C   0  0  0  0  0  0  0  0  0  0  0  0
    1.2551   -0.1562    5.0243 C   0  0  0  0  0  0  0  0  0  0  0  0
    0.3016    1.6930    6.8828 C   0  0  0  0  0  0  0  0  0  0  0  0
    1.3538    0.8425    7.2220 C   0  0  0  0  0  0  0  0  0  0  0  0
   -0.2739    1.6190    5.6143 C   0  0  0  0  0  0  0  0  0  0  0  0
    1.5999   -3.5567    2.6142 C   0  0  0  0  0  0  0  0  0  0  0  0
    1.7380   -1.0876    4.0870 N   0  0  0  0  0  0  0  0  0  0  0  0
    1.0309   -3.7464    3.6920 O   0  0  0  0  0  0  0  0  0  0  0  0
    2.1796   -4.5655    1.9099 O   0  0  0  0  0  0  0  0  0  0  0  0
   -0.1575    4.9497    8.2241 O   0  0  0  0  0  0  0  0  0  0  0  0
   -0.1669    2.5964    7.7931 O   0  0  0  0  0  0  0  0  0  0  0  0
    0.5767    3.8407    7.6433 O   0  0  0  0  0  0  0  0  0  0  0  0
    2.0852    0.9078    8.7839 Cl  0  0  0  0  0  0  0  0  0  0  0  0
   -1.5770    2.6569    5.1641 Cl  0  0  0  0  0  0  0  0  0  0  0  0
    1.9786   -0.9945   -1.1951 H   0  0  0  0  0  0  0  0  0  0  0  0
    2.0955    1.1196    0.0984 H   0  0  0  0  0  0  0  0  0  0  0  0
    1.7513   -3.1555   -0.0235 H   0  0  0  0  0  0  0  0  0  0  0  0
    1.9809    1.0730    2.5657 H   0  0  0  0  0  0  0  0  0  0  0  0
    2.6518   -0.7471    6.5518 H   0  0  0  0  0  0  0  0  0  0  0  0
   -0.2413    0.6331    3.6938 H   0  0  0  0  0  0  0  0  0  0  0  0
    2.1177   -1.9318    4.5029 H   0  0  0  0  0  0  0  0  0  0  0  0
    2.0935   -5.4383    2.3494 H   0  0  0  0  0  0  0  0  0  0  0  0
   -0.9389    4.8582    7.6533 H   0  0  0  0  0  0  0  0  0  0  0  0
  1  2  2  0  0  0  0
  1  3  1  0  0  0  0
  1 22  1  0  0  0  0
  2  4  1  0  0  0  0
  2 23  1  0  0  0  0
  3  7  2  0  0  0  0
  3 24  1  0  0  0  0
  4  8  2  0  0  0  0
  4 25  1  0  0  0  0
  5  9  2  0  0  0  0
  5 11  1  0  0  0  0
  5 26  1  0  0  0  0
  6  9  1  0  0  0  0
  6 12  2  0  0  0  0
  6 27  1  0  0  0  0
  7  8  1  0  0  0  0
  7 13  1  0  0  0  0
  8 14  1  0  0  0  0
  9 14  1  0  0  0  0
 10 11  2  0  0  0  0
 10 12  1  0  0  0  0
 10 18  1  0  0  0  0
 11 20  1  0  0  0  0
 12 21  1  0  0  0  0
 13 15  2  0  0  0  0
 13 16  1  0  0  0  0
 14 28  1  0  0  0  0
 16 29  1  0  0  0  0
 17 19  1  0  0  0  0
 17 30  1  0  0  0  0
 18 19  1  0  0  0  0
M  END
$$$$
DrugBank_6647
 OpenBabel01151909533D

 40 39  0  0  1  0  0  0  0  0999 V2000
   -2.4835    4.9050   -1.2173 C   0  0  0  0  0  0  0  0  0  0  0  0
   -1.6522    6.5604   -2.8517 C   0  0  0  0  0  0  0  0  0  0  0  0
    1.8671    4.4908    2.6109 C   0  0  0  0  0  0  0  0  0  0  0  0
    1.4756    2.7740   -1.5081 C   0  0  0  0  0  0  0  0  0  0  0  0
   -3.2998    5.6039   -0.1559 C   0  0  0  0  0  0  0  0  0  0  0  0
    0.8512    4.4771    0.2723 C   0  0  0  0  0  0  0  0  0  0  0  0
    0.2298    2.6834    1.9450 C   0  0  0  0  0  0  0  0  0  0  0  0
   -1.2327    5.6373   -1.7108 C   0  0  2  0  0  0  0  0  0  0  0  0
    1.3489    3.6223    1.4613 C   0  0  2  0  0  0  0  0  0  0  0  0
    0.3660    3.6901   -0.9697 C   0  0  1  0  0  0  0  0  0  0  0  0
   -0.1410    4.6186   -2.1093 C   0  0  2  0  0  0  0  0  0  0  0  0
   -2.7979    3.7921   -1.6384 O   0  0  0  0  0  0  0  0  0  0  0  0
   -5.5502    5.5079    1.3559 O   0  0  0  0  0  0  0  0  0  0  0  0
   -0.8666    3.3970    2.4995 O   0  0  0  0  0  0  0  0  0  0  0  0
    0.9640    5.3308   -2.6765 O   0  0  0  0  0  0  0  0  0  0  0  0
   -4.0649    3.4271    1.0965 O   0  0  0  0  0  0  0  0  0  0  0  0
   -4.7697    4.6932    0.3569 P   0  0  2  0  0  0  0  0  0  0  0  0
   -2.0176    5.9847   -3.7094 H   0  0  0  0  0  0  0  0  0  0  0  0
   -0.8146    7.1709   -3.2016 H   0  0  0  0  0  0  0  0  0  0  0  0
   -2.4603    7.2314   -2.5404 H   0  0  0  0  0  0  0  0  0  0  0  0
    1.0894    5.1593    2.9946 H   0  0  0  0  0  0  0  0  0  0  0  0
    2.7127    5.1051    2.2834 H   0  0  0  0  0  0  0  0  0  0  0  0
    2.2211    3.8740    3.4427 H   0  0  0  0  0  0  0  0  0  0  0  0
    2.3504    3.3522   -1.8208 H   0  0  0  0  0  0  0  0  0  0  0  0
    1.8153    2.0774   -0.7338 H   0  0  0  0  0  0  0  0  0  0  0  0
    1.1321    2.1867   -2.3660 H   0  0  0  0  0  0  0  0  0  0  0  0
   -2.6695    5.7618    0.7240 H   0  0  0  0  0  0  0  0  0  0  0  0
   -3.6183    6.5747   -0.5467 H   0  0  0  0  0  0  0  0  0  0  0  0
    0.0368    5.1181    0.6285 H   0  0  0  0  0  0  0  0  0  0  0  0
    1.6646    5.1507   -0.0262 H   0  0  0  0  0  0  0  0  0  0  0  0
   -0.1424    2.0610    1.1240 H   0  0  0  0  0  0  0  0  0  0  0  0
    0.6117    2.0092    2.7189 H   0  0  0  0  0  0  0  0  0  0  0  0
   -0.8722    6.2395   -0.8680 H   0  0  0  0  0  0  0  0  0  0  0  0
    2.1711    2.9800    1.1246 H   0  0  0  0  0  0  0  0  0  0  0  0
   -0.4699    3.0442   -0.6788 H   0  0  0  0  0  0  0  0  0  0  0  0
   -0.5303    3.9787   -2.9112 H   0  0  0  0  0  0  0  0  0  0  0  0
   -1.5208    2.7352    2.7766 H   0  0  0  0  0  0  0  0  0  0  0  0
    1.2773    5.9349   -1.9881 H   0  0  0  0  0  0  0  0  0  0  0  0
   -3.4259    3.6034    1.8195 H   0  0  0  0  0  0  0  0  0  0  0  0
   -5.4225    4.0775   -0.7305 H   0  0  0  0  0  0  0  0  0  0  0  0
  1  5  1  0  0  0  0
  1  8  1  0  0  0  0
  1 12  2  0  0  0  0
  2  8  1  0  0  0  0
  2 18  1  0  0  0  0
  2 19  1  0  0  0  0
  2 20  1  0  0  0  0
  3  9  1  0  0  0  0
  3 21  1  0  0  0  0
  3 22  1  0  0  0  0
  3 23  1  0  0  0  0
  4 10  1  0  0  0  0
  4 24  1  0  0  0  0
  4 25  1  0  0  0  0
  4 26  1  0  0  0  0
  5 17  1  0  0  0  0
  5 27  1  0  0  0  0
  5 28  1  0  0  0  0
  6  9  1  0  0  0  0
  6 10  1  0  0  0  0
  6 29  1  0  0  0  0
  6 30  1  0  0  0  0
  7  9  1  0  0  0  0
  7 14  1  0  0  0  0
  7 31  1  0  0  0  0
  7 32  1  0  0  0  0
  8 11  1  0  0  0  0
  8 33  1  1  0  0  0
  9 34  1  6  0  0  0
 10 11  1  0  0  0  0
 10 35  1  1  0  0  0
 11 15  1  0  0  0  0
 11 36  1  6  0  0  0
 13 17  2  0  0  0  0
 14 37  1  0  0  0  0
 15 38  1  0  0  0  0
 16 17  1  0  0  0  0
 16 39  1  0  0  0  0
 17 40  1  6  0  0  0
M  END
$$$$
DrugBank_1697
 OpenBabel01151909533D

 56 59  0  0  0  0  0  0  0  0999 V2000
    0.0140   -2.8054    4.8851 C   0  0  0  0  0  0  0  0  0  0  0  0
    0.0067   -3.0819    3.5224 C   0  0  0  0  0  0  0  0  0  0  0  0
    1.7620   -2.8784    0.3171 C   0  0  0  0  0  0  0  0  0  0  0  0
    1.9781   -0.3479   -0.7767 C   0  0  0  0  0  0  0  0  0  0  0  0
   -0.9496   -0.6842    4.4069 C   0  0  0  0  0  0  0  0  0  0  0  0
   -0.4715   -1.5860    5.3439 C   0  0  0  0  0  0  0  0  0  0  0  0
    2.9423   -2.5457   -0.3849 C   0  0  0  0  0  0  0  0  0  0  0  0
    0.7120   -1.9732    0.4589 C   0  0  0  0  0  0  0  0  0  0  0  0
    3.0657   -1.2389   -0.9182 C   0  0  0  0  0  0  0  0  0  0  0  0
    0.8168   -0.7088   -0.0963 C   0  0  0  0  0  0  0  0  0  0  0  0
   -0.4930   -2.1133    2.6669 C   0  0  0  0  0  0  0  0  0  0  0  0
   -0.4751   -1.2675    6.7609 C   0  0  0  0  0  0  0  0  0  0  0  0
   -1.8487   -2.2889    0.4794 C   0  0  0  0  0  0  0  0  0  0  0  0
   -1.2474   -3.6325    0.7215 C   0  0  0  0  0  0  0  0  0  0  0  0
    5.1024   -3.1885   -1.5716 C   0  0  0  0  0  0  0  0  0  0  0  0
    5.5090   -1.7301   -1.4453 C   0  0  0  0  0  0  0  0  0  0  0  0
   -0.5116   -2.3875    1.2069 C   0  0  0  0  0  0  0  0  0  0  0  0
    4.0573   -3.5922   -0.5080 C   0  0  0  0  0  0  0  0  0  0  0  0
    4.3168   -0.7749   -1.6751 C   0  0  0  0  0  0  0  0  0  0  0  0
   -0.2931    0.2833    0.0222 C   0  0  0  0  0  0  0  0  0  0  0  0
    3.5073   -4.9731   -0.9385 C   0  0  0  0  0  0  0  0  0  0  0  0
    4.7418   -3.7503    0.8679 C   0  0  0  0  0  0  0  0  0  0  0  0
    3.9850   -0.7019   -3.1822 C   0  0  0  0  0  0  0  0  0  0  0  0
    4.7841    0.6258   -1.2121 C   0  0  0  0  0  0  0  0  0  0  0  0
   -0.9729   -0.9173    3.0754 N   0  0  0  0  0  0  0  0  0  0  0  0
   -0.0682   -2.0074    7.6642 O   0  0  0  0  0  0  0  0  0  0  0  0
   -0.9858   -0.0310    7.0172 O   0  0  0  0  0  0  0  0  0  0  0  0
    0.3995   -3.5457    5.5808 H   0  0  0  0  0  0  0  0  0  0  0  0
    0.3835   -4.0301    3.1535 H   0  0  0  0  0  0  0  0  0  0  0  0
    1.6570   -3.8612    0.7716 H   0  0  0  0  0  0  0  0  0  0  0  0
    2.0295    0.6483   -1.2105 H   0  0  0  0  0  0  0  0  0  0  0  0
   -1.3415    0.2839    4.7035 H   0  0  0  0  0  0  0  0  0  0  0  0
   -1.8579   -1.9178   -0.5394 H   0  0  0  0  0  0  0  0  0  0  0  0
   -2.7346   -2.0251    1.0464 H   0  0  0  0  0  0  0  0  0  0  0  0
   -1.7283   -4.2738    1.4516 H   0  0  0  0  0  0  0  0  0  0  0  0
   -0.8508   -4.1682   -0.1336 H   0  0  0  0  0  0  0  0  0  0  0  0
    4.7084   -3.3680   -2.5800 H   0  0  0  0  0  0  0  0  0  0  0  0
    5.9955   -3.8207   -1.4841 H   0  0  0  0  0  0  0  0  0  0  0  0
    5.9467   -1.5613   -0.4533 H   0  0  0  0  0  0  0  0  0  0  0  0
    6.3097   -1.5155   -2.1650 H   0  0  0  0  0  0  0  0  0  0  0  0
   -0.9813    0.1865   -0.8255 H   0  0  0  0  0  0  0  0  0  0  0  0
   -0.8589    0.1362    0.9504 H   0  0  0  0  0  0  0  0  0  0  0  0
    0.0935    1.3099    0.0433 H   0  0  0  0  0  0  0  0  0  0  0  0
    4.3318   -5.6702   -1.0096 H   0  0  0  0  0  0  0  0  0  0  0  0
    3.0223   -4.8708   -1.9003 H   0  0  0  0  0  0  0  0  0  0  0  0
    2.7961   -5.3119   -0.1967 H   0  0  0  0  0  0  0  0  0  0  0  0
    5.5300   -4.4885    0.7857 H   0  0  0  0  0  0  0  0  0  0  0  0
    4.0049   -4.0749    1.5920 H   0  0  0  0  0  0  0  0  0  0  0  0
    5.1580   -2.7958    1.1653 H   0  0  0  0  0  0  0  0  0  0  0  0
    4.8658   -0.3746   -3.7205 H   0  0  0  0  0  0  0  0  0  0  0  0
    3.1770    0.0037   -3.3304 H   0  0  0  0  0  0  0  0  0  0  0  0
    3.6859   -1.6849   -3.5242 H   0  0  0  0  0  0  0  0  0  0  0  0
    5.6654    0.9034   -1.7753 H   0  0  0  0  0  0  0  0  0  0  0  0
    5.0150    0.5851   -0.1558 H   0  0  0  0  0  0  0  0  0  0  0  0
    3.9881    1.3364   -1.3922 H   0  0  0  0  0  0  0  0  0  0  0  0
   -0.9918    0.1941    7.9720 H   0  0  0  0  0  0  0  0  0  0  0  0
  1  2  2  0  0  0  0
  1  6  1  0  0  0  0
  1 28  1  0  0  0  0
  2 11  1  0  0  0  0
  2 29  1  0  0  0  0
  3  7  2  0  0  0  0
  3  8  1  0  0  0  0
  3 30  1  0  0  0  0
  4  9  2  0  0  0  0
  4 10  1  0  0  0  0
  4 31  1  0  0  0  0
  5  6  2  0  0  0  0
  5 25  1  0  0  0  0
  5 32  1  0  0  0  0
  6 12  1  0  0  0  0
  7  9  1  0  0  0  0
  7 18  1  0  0  0  0
  8 10  2  0  0  0  0
  8 17  1  0  0  0  0
  9 19  1  0  0  0  0
 10 20  1  0  0  0  0
 11 17  1  0  0  0  0
 11 25  2  0  0  0  0
 12 26  2  0  0  0  0
 12 27  1  0  0  0  0
 13 14  1  0  0  0  0
 13 17  1  0  0  0  0
 13 33  1  0  0  0  0
 13 34  1  0  0  0  0
 14 17  1  0  0  0  0
 14 35  1  0  0  0  0
 14 36  1  0  0  0  0
 15 16  1  0  0  0  0
 15 18  1  0  0  0  0
 15 37  1  0  0  0  0
 15 38  1  0  0  0  0
 16 19  1  0  0  0  0
 16 39  1  0  0  0  0
 16 40  1  0  0  0  0
 18 21  1  0  0  0  0
 18 22  1  0  0  0  0
 19 23  1  0  0  0  0
 19 24  1  0  0  0  0
 20 41  1  0  0  0  0
 20 42  1  0  0  0  0
 20 43  1  0  0  0  0
 21 44  1  0  0  0  0
 21 45  1  0  0  0  0
 21 46  1  0  0  0  0
 22 47  1  0  0  0  0
 22 48  1  0  0  0  0
 22 49  1  0  0  0  0
 23 50  1  0  0  0  0
 23 51  1  0  0  0  0
 23 52  1  0  0  0  0
 24 53  1  0  0  0  0
 24 54  1  0  0  0  0
 24 55  1  0  0  0  0
 27 56  1  0  0  0  0
M  END
$$$$
DrugBank_1700
 OpenBabel01151909533D

 36 37  0  0  1  0  0  0  0  0999 V2000
   -4.1741    0.3759    0.3161 C   0  0  0  0  0  0  0  0  0  0  0  0
   -3.2263    0.9905   -0.4122 C   0  0  0  0  0  0  0  0  0  0  0  0
   -5.2706    0.9553    1.0756 C   0  0  0  0  0  0  0  0  0  0  0  0
   -2.8291   -1.3153   -0.5521 C   0  0  0  0  0  0  0  0  0  0  0  0
    1.0771   -0.2902   -1.8545 C   0  0  2  0  0  0  0  0  0  0  0  0
    0.0348    0.4140   -1.0152 C   0  0  2  0  0  0  0  0  0  0  0  0
    0.3102   -1.5176   -2.3127 C   0  0  2  0  0  0  0  0  0  0  0  0
   -1.2372    0.1506   -1.8058 C   0  0  2  0  0  0  0  0  0  0  0  0
    0.8608   -2.1300   -3.5879 C   0  0  0  0  0  0  0  0  0  0  0  0
   -2.3874    0.0101   -0.9585 N   0  0  0  0  0  0  0  0  0  0  0  0
   -6.0632    0.0224    1.7116 N   0  0  0  0  0  0  0  0  0  0  0  0
   -4.0412   -1.0435    0.3110 N   0  3  0  0  0  0  0  0  0  0  0  0
   -2.9537    2.1865   -0.6874 O   0  0  0  0  0  0  0  0  0  0  0  0
   -0.5579   -5.2508   -5.3009 O   0  0  0  0  0  0  0  0  0  0  0  0
    1.9041   -4.6064   -5.0347 O   0  0  0  0  0  0  0  0  0  0  0  0
   -5.4578    2.1744    1.1338 O   0  0  0  0  0  0  0  0  0  0  0  0
    0.3321   -3.1300   -6.4224 O   0  0  0  0  0  0  0  0  0  0  0  0
   -1.0387   -1.0743   -2.5303 O   0  0  0  0  0  0  0  0  0  0  0  0
    2.2143   -0.6521   -1.0952 O   0  0  0  0  0  0  0  0  0  0  0  0
    0.3140    1.7990   -0.9216 O   0  0  0  0  0  0  0  0  0  0  0  0
    0.0848   -3.2695   -3.9211 O   0  0  0  0  0  0  0  0  0  0  0  0
    0.4755   -4.1285   -5.2775 P   0  0  0  0  0  0  0  0  0  0  0  0
   -3.1547   -1.9284   -1.3982 H   0  0  0  0  0  0  0  0  0  0  0  0
   -2.0903   -1.8337    0.0669 H   0  0  0  0  0  0  0  0  0  0  0  0
    1.3991    0.3396   -2.6933 H   0  0  0  0  0  0  0  0  0  0  0  0
    0.0040    0.0014    0.0012 H   0  0  0  0  0  0  0  0  0  0  0  0
    0.2925   -2.2849   -1.5279 H   0  0  0  0  0  0  0  0  0  0  0  0
   -1.4305    0.9387   -2.5421 H   0  0  0  0  0  0  0  0  0  0  0  0
    1.8994   -2.4372   -3.4436 H   0  0  0  0  0  0  0  0  0  0  0  0
    0.8068   -1.4108   -4.4086 H   0  0  0  0  0  0  0  0  0  0  0  0
   -6.8516    0.3436    2.2638 H   0  0  0  0  0  0  0  0  0  0  0  0
   -5.8842   -0.9749    1.6456 H   0  0  0  0  0  0  0  0  0  0  0  0
   -3.9035   -1.4145    1.2611 H   0  0  0  0  0  0  0  0  0  0  0  0
   -4.8768   -1.5008   -0.0787 H   0  0  0  0  0  0  0  0  0  0  0  0
    2.5909    0.1688   -0.7340 H   0  0  0  0  0  0  0  0  0  0  0  0
   -0.3856    2.1940   -0.3740 H   0  0  0  0  0  0  0  0  0  0  0  0
  1  2  2  0  0  0  0
  1  3  1  0  0  0  0
  1 12  1  0  0  0  0
  2 10  1  0  0  0  0
  2 13  1  0  0  0  0
  3 11  1  0  0  0  0
  3 16  2  0  0  0  0
  4 10  1  0  0  0  0
  4 12  1  0  0  0  0
  4 23  1  0  0  0  0
  4 24  1  0  0  0  0
  5  6  1  1  0  0  0
  5 19  1  0  0  0  0
  5 25  1  0  0  0  0
  6  8  1  6  0  0  0
  6 20  1  0  0  0  0
  6 26  1  0  0  0  0
  7  5  1  1  0  0  0
  7  9  1  0  0  0  0
  7 18  1  0  0  0  0
  7 27  1  0  0  0  0
  8 10  1  0  0  0  0
  8 18  1  0  0  0  0
  8 28  1  6  0  0  0
  9 21  1  0  0  0  0
  9 29  1  0  0  0  0
  9 30  1  0  0  0  0
 11 31  1  0  0  0  0
 11 32  1  0  0  0  0
 12 33  1  0  0  0  0
 12 34  1  0  0  0  0
 14 22  1  0  0  0  0
 15 22  1  0  0  0  0
 17 22  2  0  0  0  0
 19 35  1  0  0  0  0
 20 36  1  0  0  0  0
 21 22  1  0  0  0  0
M  CHG  1  12   1
M  END
$$$$
DrugBank_4316
 OpenBabel01151909533D

 72 73  0  0  1  0  0  0  0  0999 V2000
    2.2853   -8.8369    6.4753 C   0  0  0  0  0  0  0  0  0  0  0  0
    1.6141   -7.8939    7.2536 C   0  0  0  0  0  0  0  0  0  0  0  0
    1.9888   -8.9592    5.1178 C   0  0  0  0  0  0  0  0  0  0  0  0
    0.6462   -7.0732    6.6744 C   0  0  0  0  0  0  0  0  0  0  0  0
    1.0210   -8.1386    4.5386 C   0  0  0  0  0  0  0  0  0  0  0  0
    0.3497   -7.1956    5.3169 C   0  0  0  0  0  0  0  0  0  0  0  0
    0.2745   -0.9278   -0.4602 C   0  0  0  0  0  0  0  0  0  0  0  0
   -0.6242   -2.7757    1.8997 C   0  0  0  0  0  0  0  0  0  0  0  0
   -1.9480    3.2313    3.8131 C   0  0  0  0  0  0  0  0  0  0  0  0
    0.6080   -3.8946   -1.4236 C   0  0  0  0  0  0  0  0  0  0  0  0
    1.6937   -2.9313   -0.9499 C   0  0  0  0  0  0  0  0  0  0  0  0
   -0.1708   -4.1959   -0.1521 C   0  0  0  0  0  0  0  0  0  0  0  0
    0.9924   -2.1072    0.1237 C   0  0  2  0  0  0  0  0  0  0  0  0
   -3.6420   -6.0874    1.9981 C   0  0  0  0  0  0  0  0  0  0  0  0
   -5.3821   -4.2909    2.0605 C   0  0  0  0  0  0  0  0  0  0  0  0
   -0.6895   -6.3149    4.6944 C   0  0  0  0  0  0  0  0  0  0  0  0
    0.6491    2.6745    1.3138 C   0  0  0  0  0  0  0  0  0  0  0  0
   -0.2437    2.3069    0.1225 C   0  0  0  0  0  0  0  0  0  0  0  0
   -2.9594   -3.6278    1.9743 C   0  0  0  0  0  0  0  0  0  0  0  0
   -0.1001    3.4701    2.3776 C   0  0  0  0  0  0  0  0  0  0  0  0
    0.5003    1.5018   -0.9386 C   0  0  0  0  0  0  0  0  0  0  0  0
   -1.5174   -3.8845    2.3959 C   0  0  2  0  0  0  0  0  0  0  0  0
   -3.9645   -4.6764    2.4920 C   0  0  0  0  0  0  0  0  0  0  0  0
   -1.2163    2.6781    2.8965 N   0  0  0  0  0  0  0  0  0  0  0  0
   -0.0213   -2.9989    0.6716 N   0  0  0  0  0  0  0  0  0  0  0  0
   -3.0160    2.5531    4.3518 N   0  0  0  0  0  0  0  0  0  0  0  0
   -1.8057    4.4845    4.3662 N   0  0  0  0  0  0  0  0  0  0  0  0
    1.0020    0.2466   -0.4269 N   0  0  0  0  0  0  0  0  0  0  0  0
   -1.3281   -3.8566    3.8164 N   0  0  0  0  0  0  0  0  0  0  0  0
   -0.8563   -1.0709   -0.9101 O   0  0  0  0  0  0  0  0  0  0  0  0
   -0.4744   -1.7511    2.5674 O   0  0  0  0  0  0  0  0  0  0  0  0
    0.2210   -4.1620    5.8718 O   0  0  0  0  0  0  0  0  0  0  0  0
    1.0981   -4.7706    3.5878 O   0  0  0  0  0  0  0  0  0  0  0  0
    0.0051   -4.6856    4.5372 S   0  0  0  0  0  0  0  0  0  0  0  0
    3.0399   -9.4749    6.9261 H   0  0  0  0  0  0  0  0  0  0  0  0
    1.8456   -7.7977    8.3104 H   0  0  0  0  0  0  0  0  0  0  0  0
    2.5120   -9.6925    4.5113 H   0  0  0  0  0  0  0  0  0  0  0  0
    0.1281   -6.3414    7.2886 H   0  0  0  0  0  0  0  0  0  0  0  0
    0.7965   -8.2410    3.4802 H   0  0  0  0  0  0  0  0  0  0  0  0
   -0.0415   -3.3970   -2.1534 H   0  0  0  0  0  0  0  0  0  0  0  0
    1.0134   -4.7961   -1.8913 H   0  0  0  0  0  0  0  0  0  0  0  0
    2.5142   -3.5041   -0.5009 H   0  0  0  0  0  0  0  0  0  0  0  0
    2.1008   -2.3313   -1.7694 H   0  0  0  0  0  0  0  0  0  0  0  0
   -1.2261   -4.4080   -0.3445 H   0  0  0  0  0  0  0  0  0  0  0  0
    0.2696   -5.0376    0.3935 H   0  0  0  0  0  0  0  0  0  0  0  0
    1.6704   -1.7550    0.9070 H   0  0  0  0  0  0  0  0  0  0  0  0
   -3.6529   -6.1274    0.9034 H   0  0  0  0  0  0  0  0  0  0  0  0
   -4.3792   -6.8130    2.3543 H   0  0  0  0  0  0  0  0  0  0  0  0
   -2.6520   -6.4103    2.3375 H   0  0  0  0  0  0  0  0  0  0  0  0
   -5.4727   -4.2655    0.9692 H   0  0  0  0  0  0  0  0  0  0  0  0
   -6.1147   -5.0087    2.4446 H   0  0  0  0  0  0  0  0  0  0  0  0
   -5.6516   -3.3022    2.4468 H   0  0  0  0  0  0  0  0  0  0  0  0
   -1.5895   -6.2437    5.3117 H   0  0  0  0  0  0  0  0  0  0  0  0
   -0.9759   -6.6609    3.6972 H   0  0  0  0  0  0  0  0  0  0  0  0
    1.4932    3.2770    0.9572 H   0  0  0  0  0  0  0  0  0  0  0  0
    1.0667    1.7658    1.7633 H   0  0  0  0  0  0  0  0  0  0  0  0
   -0.6208    3.2271   -0.3400 H   0  0  0  0  0  0  0  0  0  0  0  0
   -1.1151    1.7389    0.4695 H   0  0  0  0  0  0  0  0  0  0  0  0
   -3.0125   -3.5834    0.8781 H   0  0  0  0  0  0  0  0  0  0  0  0
   -3.2730   -2.6364    2.3303 H   0  0  0  0  0  0  0  0  0  0  0  0
    0.5763    3.7085    3.2050 H   0  0  0  0  0  0  0  0  0  0  0  0
   -0.4766    4.4136    1.9692 H   0  0  0  0  0  0  0  0  0  0  0  0
   -0.1738    1.2625   -1.7672 H   0  0  0  0  0  0  0  0  0  0  0  0
    1.3489    2.0634   -1.3416 H   0  0  0  0  0  0  0  0  0  0  0  0
   -1.1228   -4.8230    2.0088 H   0  0  0  0  0  0  0  0  0  0  0  0
   -3.9425   -4.6832    3.5887 H   0  0  0  0  0  0  0  0  0  0  0  0
   -3.2504    1.6158    4.0435 H   0  0  0  0  0  0  0  0  0  0  0  0
   -3.6015    2.9686    5.0681 H   0  0  0  0  0  0  0  0  0  0  0  0
   -2.4426    4.8151    5.0830 H   0  0  0  0  0  0  0  0  0  0  0  0
   -1.0678    5.1192    4.0829 H   0  0  0  0  0  0  0  0  0  0  0  0
    1.9339    0.2268   -0.0237 H   0  0  0  0  0  0  0  0  0  0  0  0
   -2.1990   -3.8594    4.3946 H   0  0  0  0  0  0  0  0  0  0  0  0
  1  2  2  0  0  0  0
  1  3  1  0  0  0  0
  1 35  1  0  0  0  0
  2  4  1  0  0  0  0
  2 36  1  0  0  0  0
  3  5  2  0  0  0  0
  3 37  1  0  0  0  0
  4  6  2  0  0  0  0
  4 38  1  0  0  0  0
  5  6  1  0  0  0  0
  5 39  1  0  0  0  0
  6 16  1  0  0  0  0
  7 13  1  0  0  0  0
  7 28  1  0  0  0  0
  7 30  2  0  0  0  0
  8 22  1  0  0  0  0
  8 25  1  0  0  0  0
  8 31  2  0  0  0  0
  9 24  2  0  0  0  0
  9 26  1  0  0  0  0
  9 27  1  0  0  0  0
 10 11  1  0  0  0  0
 10 12  1  0  0  0  0
 10 40  1  0  0  0  0
 10 41  1  0  0  0  0
 11 13  1  0  0  0  0
 11 42  1  0  0  0  0
 11 43  1  0  0  0  0
 12 25  1  0  0  0  0
 12 44  1  0  0  0  0
 12 45  1  0  0  0  0
 13 25  1  0  0  0  0
 13 46  1  1  0  0  0
 14 23  1  0  0  0  0
 14 47  1  0  0  0  0
 14 48  1  0  0  0  0
 14 49  1  0  0  0  0
 15 23  1  0  0  0  0
 15 50  1  0  0  0  0
 15 51  1  0  0  0  0
 15 52  1  0  0  0  0
 16 34  1  0  0  0  0
 16 53  1  0  0  0  0
 16 54  1  0  0  0  0
 17 18  1  0  0  0  0
 17 20  1  0  0  0  0
 17 55  1  0  0  0  0
 17 56  1  0  0  0  0
 18 21  1  0  0  0  0
 18 57  1  0  0  0  0
 18 58  1  0  0  0  0
 19 22  1  0  0  0  0
 19 23  1  0  0  0  0
 19 59  1  0  0  0  0
 19 60  1  0  0  0  0
 20 24  1  0  0  0  0
 20 61  1  0  0  0  0
 20 62  1  0  0  0  0
 21 28  1  0  0  0  0
 21 63  1  0  0  0  0
 21 64  1  0  0  0  0
 22 29  1  0  0  0  0
 22 65  1  6  0  0  0
 23 66  1  0  0  0  0
 26 67  1  0  0  0  0
 26 68  1  0  0  0  0
 27 69  1  0  0  0  0
 27 70  1  0  0  0  0
 28 71  1  0  0  0  0
 29 34  1  0  0  0  0
 29 72  1  0  0  0  0
 32 34  2  0  0  0  0
 33 34  2  0  0  0  0
M  END
$$$$
DrugBank_4322
 OpenBabel01151909533D

 50 51  0  0  1  0  0  0  0  0999 V2000
    4.2888    6.2117   -3.0439 C   0  0  0  0  0  0  0  0  0  0  0  0
    3.5622    5.1807   -2.4483 C   0  0  0  0  0  0  0  0  0  0  0  0
    3.6249    7.3228   -3.5640 C   0  0  0  0  0  0  0  0  0  0  0  0
    2.1716    5.2607   -2.3729 C   0  0  0  0  0  0  0  0  0  0  0  0
    2.2343    7.4028   -3.4886 C   0  0  0  0  0  0  0  0  0  0  0  0
    3.8010    5.3919    1.9951 C   0  0  0  0  0  0  0  0  0  0  0  0
    2.0841    3.7336    1.6219 C   0  0  0  0  0  0  0  0  0  0  0  0
    3.0204    6.3468    1.3434 C   0  0  0  0  0  0  0  0  0  0  0  0
    1.3035    4.6885    0.9703 C   0  0  0  0  0  0  0  0  0  0  0  0
    3.3328    4.0853    2.1342 C   0  0  0  0  0  0  0  0  0  0  0  0
    1.5077    6.3717   -2.8930 C   0  0  0  0  0  0  0  0  0  0  0  0
    1.7717    5.9951    0.8311 C   0  0  0  0  0  0  0  0  0  0  0  0
   -0.6906    5.8456   -4.0287 C   0  0  0  0  0  0  0  0  0  0  0  0
    4.1669    3.0637    2.8304 C   0  0  0  0  0  0  0  0  0  0  0  0
   -1.6721    7.4096    1.5313 C   0  0  0  0  0  0  0  0  0  0  0  0
   -0.0011    6.4591   -2.8118 C   0  0  1  0  0  0  0  0  0  0  0  0
   -2.8519    7.0510    2.4307 C   0  0  0  0  0  0  0  0  0  0  0  0
   -0.3410    6.7317   -0.4052 C   0  0  2  0  0  0  0  0  0  0  0  0
    5.2611    2.6014    2.0147 N   0  0  0  0  0  0  0  0  0  0  0  0
    0.9962    6.9425    0.1862 N   0  0  0  0  0  0  0  0  0  0  0  0
   -1.5064    6.4283    0.4677 N   0  0  0  0  0  0  0  0  0  0  0  0
   -0.5050    5.8473   -1.5897 N   0  0  0  0  0  0  0  0  0  0  0  0
   -2.9586    8.0608    3.4277 O   0  0  0  0  0  0  0  0  0  0  0  0
   -2.6074    5.7856    3.0304 O   0  0  0  0  0  0  0  0  0  0  0  0
    5.3716    6.1499   -3.1013 H   0  0  0  0  0  0  0  0  0  0  0  0
    4.0790    4.3161   -2.0423 H   0  0  0  0  0  0  0  0  0  0  0  0
    4.1903    8.1261   -4.0268 H   0  0  0  0  0  0  0  0  0  0  0  0
    1.6137    4.4526   -1.9072 H   0  0  0  0  0  0  0  0  0  0  0  0
    1.7256    8.2721   -3.8966 H   0  0  0  0  0  0  0  0  0  0  0  0
    4.7730    5.6744    2.3902 H   0  0  0  0  0  0  0  0  0  0  0  0
    1.7119    2.7178    1.7241 H   0  0  0  0  0  0  0  0  0  0  0  0
    3.3954    7.3616    1.2392 H   0  0  0  0  0  0  0  0  0  0  0  0
    0.3323    4.4032    0.5743 H   0  0  0  0  0  0  0  0  0  0  0  0
   -0.4307    4.7869   -4.1374 H   0  0  0  0  0  0  0  0  0  0  0  0
   -1.7795    5.9194   -3.9308 H   0  0  0  0  0  0  0  0  0  0  0  0
   -0.4156    6.3580   -4.9574 H   0  0  0  0  0  0  0  0  0  0  0  0
    4.5950    3.4674    3.7586 H   0  0  0  0  0  0  0  0  0  0  0  0
    3.5735    2.1828    3.1119 H   0  0  0  0  0  0  0  0  0  0  0  0
   -0.7493    7.4517    2.1211 H   0  0  0  0  0  0  0  0  0  0  0  0
   -1.8200    8.4033    1.0933 H   0  0  0  0  0  0  0  0  0  0  0  0
   -0.2976    7.5137   -2.7553 H   0  0  0  0  0  0  0  0  0  0  0  0
   -3.7848    7.0159    1.8555 H   0  0  0  0  0  0  0  0  0  0  0  0
   -0.5907    7.7236   -0.8067 H   0  0  0  0  0  0  0  0  0  0  0  0
    5.6408    1.6845    2.1808 H   0  0  0  0  0  0  0  0  0  0  0  0
    5.7561    3.2635    1.4409 H   0  0  0  0  0  0  0  0  0  0  0  0
    1.3791    7.8795    0.1110 H   0  0  0  0  0  0  0  0  0  0  0  0
   -2.3508    6.3966   -0.1006 H   0  0  0  0  0  0  0  0  0  0  0  0
   -1.4911    5.6207   -1.7041 H   0  0  0  0  0  0  0  0  0  0  0  0
   -3.7120    7.8231    3.9945 H   0  0  0  0  0  0  0  0  0  0  0  0
   -3.3730    5.5851    3.5951 H   0  0  0  0  0  0  0  0  0  0  0  0
  1  2  2  0  0  0  0
  1  3  1  0  0  0  0
  1 25  1  0  0  0  0
  2  4  1  0  0  0  0
  2 26  1  0  0  0  0
  3  5  2  0  0  0  0
  3 27  1  0  0  0  0
  4 11  2  0  0  0  0
  4 28  1  0  0  0  0
  5 11  1  0  0  0  0
  5 29  1  0  0  0  0
  6  8  2  0  0  0  0
  6 10  1  0  0  0  0
  6 30  1  0  0  0  0
  7  9  1  0  0  0  0
  7 10  2  0  0  0  0
  7 31  1  0  0  0  0
  8 12  1  0  0  0  0
  8 32  1  0  0  0  0
  9 12  2  0  0  0  0
  9 33  1  0  0  0  0
 10 14  1  0  0  0  0
 11 16  1  0  0  0  0
 12 20  1  0  0  0  0
 13 16  1  0  0  0  0
 13 34  1  0  0  0  0
 13 35  1  0  0  0  0
 13 36  1  0  0  0  0
 14 19  1  0  0  0  0
 14 37  1  0  0  0  0
 14 38  1  0  0  0  0
 15 17  1  0  0  0  0
 15 21  1  0  0  0  0
 15 39  1  0  0  0  0
 15 40  1  0  0  0  0
 16 22  1  0  0  0  0
 16 41  1  1  0  0  0
 17 23  1  0  0  0  0
 17 24  1  0  0  0  0
 17 42  1  0  0  0  0
 18 20  1  0  0  0  0
 18 21  1  0  0  0  0
 18 22  1  0  0  0  0
 18 43  1  6  0  0  0
 19 44  1  0  0  0  0
 19 45  1  0  0  0  0
 20 46  1  0  0  0  0
 21 47  1  0  0  0  0
 22 48  1  0  0  0  0
 23 49  1  0  0  0  0
 24 50  1  0  0  0  0
M  END
$$$$
DrugBank_4323
 OpenBabel01151909533D

 30 30  0  0  0  0  0  0  0  0999 V2000
   -1.9856    4.0501    2.7549 C   0  0  0  0  0  0  0  0  0  0  0  0
   -2.1262    3.7797    1.3938 C   0  0  0  0  0  0  0  0  0  0  0  0
   -0.8566    3.6035    3.4417 C   0  0  0  0  0  0  0  0  0  0  0  0
   -1.1380    3.0625    0.7195 C   0  0  0  0  0  0  0  0  0  0  0  0
    0.1316    2.8863    2.7674 C   0  0  0  0  0  0  0  0  0  0  0  0
   -0.0090    2.6158    1.4063 C   0  0  0  0  0  0  0  0  0  0  0  0
    0.8112    0.3430    0.7033 C   0  0  0  0  0  0  0  0  0  0  0  0
    4.0406   -1.6978    2.2962 C   0  0  0  0  0  0  0  0  0  0  0  0
    1.0608    1.8393    0.6771 C   0  0  0  0  0  0  0  0  0  0  0  0
    3.1815   -0.9381    1.3034 C   0  0  0  0  0  0  0  0  0  0  0  0
    0.1029   -0.3238   -0.1534 N   0  0  0  0  0  0  0  0  0  0  0  0
   -0.2280   -2.3580   -2.2327 O   0  0  0  0  0  0  0  0  0  0  0  0
   -2.2167   -2.2245   -0.6882 O   0  0  0  0  0  0  0  0  0  0  0  0
   -0.5642   -4.0719   -0.4592 O   0  0  0  0  0  0  0  0  0  0  0  0
    0.0744   -1.6846    0.1592 O   0  0  0  0  0  0  0  0  0  0  0  0
    1.5882   -0.5110    2.0396 S   0  0  0  0  0  0  0  0  0  0  0  0
   -0.8165   -2.5279   -0.9173 S   0  0  0  0  0  0  0  0  0  0  0  0
   -2.7545    4.6097    3.2795 H   0  0  0  0  0  0  0  0  0  0  0  0
   -3.0047    4.1283    0.8586 H   0  0  0  0  0  0  0  0  0  0  0  0
   -0.7462    3.8148    4.5012 H   0  0  0  0  0  0  0  0  0  0  0  0
   -1.2561    2.8562   -0.3411 H   0  0  0  0  0  0  0  0  0  0  0  0
    1.0077    2.5422    3.3107 H   0  0  0  0  0  0  0  0  0  0  0  0
    4.2297   -1.1071    3.1990 H   0  0  0  0  0  0  0  0  0  0  0  0
    3.5745   -2.6443    2.5904 H   0  0  0  0  0  0  0  0  0  0  0  0
    5.0109   -1.9328    1.8460 H   0  0  0  0  0  0  0  0  0  0  0  0
    2.0361    2.0795    1.1184 H   0  0  0  0  0  0  0  0  0  0  0  0
    1.1279    2.1688   -0.3671 H   0  0  0  0  0  0  0  0  0  0  0  0
    3.0057   -1.5462    0.4108 H   0  0  0  0  0  0  0  0  0  0  0  0
    3.6846   -0.0172    0.9937 H   0  0  0  0  0  0  0  0  0  0  0  0
   -0.7595   -4.2683    0.4871 H   0  0  0  0  0  0  0  0  0  0  0  0
  1  2  2  0  0  0  0
  1  3  1  0  0  0  0
  1 18  1  0  0  0  0
  2  4  1  0  0  0  0
  2 19  1  0  0  0  0
  3  5  2  0  0  0  0
  3 20  1  0  0  0  0
  4  6  2  0  0  0  0
  4 21  1  0  0  0  0
  5  6  1  0  0  0  0
  5 22  1  0  0  0  0
  6  9  1  0  0  0  0
  7  9  1  0  0  0  0
  7 11  2  0  0  0  0
  7 16  1  0  0  0  0
  8 10  1  0  0  0  0
  8 23  1  0  0  0  0
  8 24  1  0  0  0  0
  8 25  1  0  0  0  0
  9 26  1  0  0  0  0
  9 27  1  0  0  0  0
 10 16  1  0  0  0  0
 10 28  1  0  0  0  0
 10 29  1  0  0  0  0
 11 15  1  0  0  0  0
 12 17  2  0  0  0  0
 13 17  2  0  0  0  0
 14 17  1  0  0  0  0
 14 30  1  0  0  0  0
 15 17  1  0  0  0  0
M  END
$$$$
DrugBank_1710
 OpenBabel01151909533D

 14 13  0  0  0  0  0  0  0  0999 V2000
    0.3637   -0.4363   -0.9353 C   0  0  0  0  0  0  0  0  0  0  0  0
    1.2618   -1.6229   -0.6426 C   0  0  0  0  0  0  0  0  0  0  0  0
   -0.0114    0.2679    0.2605 N   0  0  0  0  0  0  0  0  0  0  0  0
    2.3878   -1.6299   -3.0125 O   0  0  0  0  0  0  0  0  0  0  0  0
    0.5343   -3.2886   -2.5319 O   0  0  0  0  0  0  0  0  0  0  0  0
    2.7699   -3.5314   -1.4225 O   0  0  0  0  0  0  0  0  0  0  0  0
    1.6877   -2.5187   -2.1034 S   0  0  0  0  0  0  0  0  0  0  0  0
    0.8511    0.2817   -1.6022 H   0  0  0  0  0  0  0  0  0  0  0  0
   -0.5629   -0.7736   -1.4095 H   0  0  0  0  0  0  0  0  0  0  0  0
    0.7516   -2.3338    0.0142 H   0  0  0  0  0  0  0  0  0  0  0  0
    2.1997   -1.3160   -0.1701 H   0  0  0  0  0  0  0  0  0  0  0  0
   -0.8739    0.7892    0.2742 H   0  0  0  0  0  0  0  0  0  0  0  0
    0.6734    0.4016    0.9878 H   0  0  0  0  0  0  0  0  0  0  0  0
    3.5976   -3.1075   -1.0944 H   0  0  0  0  0  0  0  0  0  0  0  0
  1  2  1  0  0  0  0
  1  3  1  0  0  0  0
  1  8  1  0  0  0  0
  1  9  1  0  0  0  0
  2  7  1  0  0  0  0
  2 10  1  0  0  0  0
  2 11  1  0  0  0  0
  3 12  1  0  0  0  0
  3 13  1  0  0  0  0
  4  7  2  0  0  0  0
  5  7  2  0  0  0  0
  6  7  1  0  0  0  0
  6 14  1  0  0  0  0
M  END
$$$$
DrugBank_4330
 OpenBabel01151909533D

126133  0  0  0  0  0  0  0  0999 V2000
    0.2106  -10.4180    7.3449 C   0  0  0  0  0  0  0  0  0  0  0  0
   -7.2448   -7.3658   12.7541 C   0  0  0  0  0  0  0  0  0  0  0  0
   -0.3780  -10.6893    6.1098 C   0  0  0  0  0  0  0  0  0  0  0  0
   -8.3276   -7.4350   11.8776 C   0  0  0  0  0  0  0  0  0  0  0  0
   -6.2334  -12.1896    1.4944 C   0  0  0  0  0  0  0  0  0  0  0  0
  -14.2660   -8.5881    8.4140 C   0  0  0  0  0  0  0  0  0  0  0  0
   -6.7434  -12.1516    2.7921 C   0  0  0  0  0  0  0  0  0  0  0  0
  -14.1860   -8.0143    9.6828 C   0  0  0  0  0  0  0  0  0  0  0  0
   -0.5696   -9.9475    8.4011 C   0  0  0  0  0  0  0  0  0  0  0  0
   -5.9717   -7.7361   12.3205 C   0  0  0  0  0  0  0  0  0  0  0  0
   -4.0966  -12.5566   -2.9478 C   0  0  0  0  0  0  0  0  0  0  0  0
  -12.4062  -10.5608    3.7738 C   0  0  0  0  0  0  0  0  0  0  0  0
   -3.8067  -12.6576   -4.3052 C   0  0  0  0  0  0  0  0  0  0  0  0
  -12.2534  -11.1540    2.5242 C   0  0  0  0  0  0  0  0  0  0  0  0
   -6.2864  -10.2717   -5.7285 C   0  0  0  0  0  0  0  0  0  0  0  0
  -10.5347  -14.3221    3.4603 C   0  0  0  0  0  0  0  0  0  0  0  0
   -2.5272  -10.0196    6.9870 C   0  0  0  0  0  0  0  0  0  0  0  0
   -6.8645   -8.2450   10.1340 C   0  0  0  0  0  0  0  0  0  0  0  0
   -4.0667  -11.5183    2.3262 C   0  0  0  0  0  0  0  0  0  0  0  0
  -11.8654   -8.8580    8.3845 C   0  0  0  0  0  0  0  0  0  0  0  0
   -7.5886   -9.3156   -3.9346 C   0  0  0  0  0  0  0  0  0  0  0  0
  -10.2220  -14.3787    5.8533 C   0  0  0  0  0  0  0  0  0  0  0  0
   -5.5502  -11.0379   -4.8102 C   0  0  0  0  0  0  0  0  0  0  0  0
  -11.1600  -13.0680    3.5533 C   0  0  0  0  0  0  0  0  0  0  0  0
   -5.8451  -10.9353   -3.4298 C   0  0  0  0  0  0  0  0  0  0  0  0
  -11.3154  -12.4647    4.8241 C   0  0  0  0  0  0  0  0  0  0  0  0
   -1.7469  -10.4901    5.9308 C   0  0  0  0  0  0  0  0  0  0  0  0
   -8.1375   -7.8747   10.5676 C   0  0  0  0  0  0  0  0  0  0  0  0
   -4.8950  -11.8730    1.2614 C   0  0  0  0  0  0  0  0  0  0  0  0
  -13.1057   -9.0100    7.7649 C   0  0  0  0  0  0  0  0  0  0  0  0
   -5.9150  -11.7969    3.8569 C   0  0  0  0  0  0  0  0  0  0  0  0
  -12.9456   -7.8623   10.3025 C   0  0  0  0  0  0  0  0  0  0  0  0
   -1.9386   -9.7483    8.2221 C   0  0  0  0  0  0  0  0  0  0  0  0
   -5.7816   -8.1757   11.0105 C   0  0  0  0  0  0  0  0  0  0  0  0
   -5.1089  -11.7014   -2.5114 C   0  0  0  0  0  0  0  0  0  0  0  0
  -11.9407  -11.2107    4.9172 C   0  0  0  0  0  0  0  0  0  0  0  0
   -4.5767  -11.4803    3.6239 C   0  0  0  0  0  0  0  0  0  0  0  0
  -11.7853   -8.2841    9.6534 C   0  0  0  0  0  0  0  0  0  0  0  0
   -4.5280  -11.9038   -5.2315 C   0  0  0  0  0  0  0  0  0  0  0  0
  -11.6346  -12.3994    2.4131 C   0  0  0  0  0  0  0  0  0  0  0  0
   -7.2987   -9.4166   -5.2921 C   0  0  0  0  0  0  0  0  0  0  0  0
  -10.0693  -14.9720    4.6037 C   0  0  0  0  0  0  0  0  0  0  0  0
   -6.8674  -10.0694   -3.0084 C   0  0  0  0  0  0  0  0  0  0  0  0
  -10.8408  -13.1333    5.9644 C   0  0  0  0  0  0  0  0  0  0  0  0
   -2.3672  -10.7771    4.6260 C   0  0  0  0  0  0  0  0  0  0  0  0
   -9.2673   -7.9463    9.6549 C   0  0  0  0  0  0  0  0  0  0  0  0
   -4.3573  -11.9140   -0.1093 C   0  0  0  0  0  0  0  0  0  0  0  0
  -13.1904   -9.6087    6.4422 C   0  0  0  0  0  0  0  0  0  0  0  0
   -4.1099   -9.0128    9.3005 C   0  0  0  0  0  0  0  0  0  0  0  0
   -6.4886  -11.7636    5.2363 C   0  0  0  0  0  0  0  0  0  0  0  0
  -12.8898   -7.2433   11.6614 C   0  0  0  0  0  0  0  0  0  0  0  0
   -5.3039  -11.6900   -1.1265 N   0  0  0  0  0  0  0  0  0  0  0  0
  -12.1554  -10.5026    6.1265 N   0  0  0  0  0  0  0  0  0  0  0  0
   -3.7313  -11.1234    4.6776 N   0  0  0  0  0  0  0  0  0  0  0  0
  -10.5156   -8.1388   10.2671 N   0  0  0  0  0  0  0  0  0  0  0  0
   -2.7189   -9.2780    9.2788 N   0  0  0  0  0  0  0  0  0  0  0  0
   -4.4902   -8.5511   10.5709 N   0  0  0  0  0  0  0  0  0  0  0  0
   -1.7065  -10.7418    3.5900 O   0  0  0  0  0  0  0  0  0  0  0  0
   -9.1182   -7.8761    8.4269 O   0  0  0  0  0  0  0  0  0  0  0  0
   -3.1714  -12.1623   -0.3165 O   0  0  0  0  0  0  0  0  0  0  0  0
  -14.0967   -9.3139    5.6507 O   0  0  0  0  0  0  0  0  0  0  0  0
   -4.8653   -9.1664    8.3461 O   0  0  0  0  0  0  0  0  0  0  0  0
   -3.0625  -13.1340   -6.9857 O   0  0  0  0  0  0  0  0  0  0  0  0
   -5.3233  -12.2254   -7.6625 O   0  0  0  0  0  0  0  0  0  0  0  0
  -12.0026  -12.0666   -0.1348 O   0  0  0  0  0  0  0  0  0  0  0  0
  -10.1413  -13.5761    0.6721 O   0  0  0  0  0  0  0  0  0  0  0  0
   -8.1245   -9.1432   -7.7377 O   0  0  0  0  0  0  0  0  0  0  0  0
   -9.4894   -8.1742   -5.8424 O   0  0  0  0  0  0  0  0  0  0  0  0
   -9.4325  -17.2140    5.7463 O   0  0  0  0  0  0  0  0  0  0  0  0
   -9.7909  -17.1444    3.2441 O   0  0  0  0  0  0  0  0  0  0  0  0
   -6.1779   -9.6728   -0.5375 O   0  0  0  0  0  0  0  0  0  0  0  0
   -8.3711   -8.7442   -1.3872 O   0  0  0  0  0  0  0  0  0  0  0  0
  -12.2786  -12.0157    7.8141 O   0  0  0  0  0  0  0  0  0  0  0  0
  -10.4372  -13.6226    8.4630 O   0  0  0  0  0  0  0  0  0  0  0  0
   -3.3724  -10.6920   -7.3333 O   0  0  0  0  0  0  0  0  0  0  0  0
  -12.5283  -14.3239    0.7642 O   0  0  0  0  0  0  0  0  0  0  0  0
   -7.3741   -7.0672   -6.5944 O   0  0  0  0  0  0  0  0  0  0  0  0
   -7.7070  -16.2077    4.2664 O   0  0  0  0  0  0  0  0  0  0  0  0
   -8.1143  -11.1873   -0.9068 O   0  0  0  0  0  0  0  0  0  0  0  0
   -9.9003  -11.3025    7.6921 O   0  0  0  0  0  0  0  0  0  0  0  0
   -4.0823  -12.1022   -6.9200 S   0  0  0  0  0  0  0  0  0  0  0  0
  -11.4934  -13.0623    0.7915 S   0  0  0  0  0  0  0  0  0  0  0  0
   -8.2012   -8.4699   -6.4496 S   0  0  0  0  0  0  0  0  0  0  0  0
   -9.2966  -16.5324    4.4675 S   0  0  0  0  0  0  0  0  0  0  0  0
   -7.3773   -9.7996   -1.3442 S   0  0  0  0  0  0  0  0  0  0  0  0
  -10.9444  -12.5536    7.6244 S   0  0  0  0  0  0  0  0  0  0  0  0
    1.2765  -10.5734    7.4845 H   0  0  0  0  0  0  0  0  0  0  0  0
   -7.3926   -7.0231   13.7741 H   0  0  0  0  0  0  0  0  0  0  0  0
    0.2403  -11.0545    5.2939 H   0  0  0  0  0  0  0  0  0  0  0  0
   -9.3150   -7.1449   12.2270 H   0  0  0  0  0  0  0  0  0  0  0  0
   -6.8878  -12.4676    0.6722 H   0  0  0  0  0  0  0  0  0  0  0  0
  -15.2379   -8.7019    7.9406 H   0  0  0  0  0  0  0  0  0  0  0  0
   -7.7876  -12.3998    2.9629 H   0  0  0  0  0  0  0  0  0  0  0  0
  -15.0959   -7.6887   10.1799 H   0  0  0  0  0  0  0  0  0  0  0  0
   -0.1002   -9.7388    9.3593 H   0  0  0  0  0  0  0  0  0  0  0  0
   -5.1350   -7.6787   13.0124 H   0  0  0  0  0  0  0  0  0  0  0  0
   -3.5231  -13.1514   -2.2405 H   0  0  0  0  0  0  0  0  0  0  0  0
  -12.8919   -9.5899    3.8407 H   0  0  0  0  0  0  0  0  0  0  0  0
   -3.0142  -13.3276   -4.6286 H   0  0  0  0  0  0  0  0  0  0  0  0
  -12.6226  -10.6350    1.6433 H   0  0  0  0  0  0  0  0  0  0  0  0
   -6.0882  -10.3245   -6.7962 H   0  0  0  0  0  0  0  0  0  0  0  0
  -10.3979  -14.8159    2.5014 H   0  0  0  0  0  0  0  0  0  0  0  0
   -3.5949   -9.8632    6.8471 H   0  0  0  0  0  0  0  0  0  0  0  0
   -6.7163   -8.5890    9.1124 H   0  0  0  0  0  0  0  0  0  0  0  0
   -3.0231  -11.2706    2.1432 H   0  0  0  0  0  0  0  0  0  0  0  0
  -10.9608   -9.1865    7.8769 H   0  0  0  0  0  0  0  0  0  0  0  0
   -8.3788   -8.6441   -3.6057 H   0  0  0  0  0  0  0  0  0  0  0  0
   -9.8569  -14.8956    6.7383 H   0  0  0  0  0  0  0  0  0  0  0  0
   -6.3786  -12.7426    5.7163 H   0  0  0  0  0  0  0  0  0  0  0  0
   -5.9858  -11.0112    5.8557 H   0  0  0  0  0  0  0  0  0  0  0  0
   -7.5534  -11.5012    5.2156 H   0  0  0  0  0  0  0  0  0  0  0  0
  -12.9753   -8.0161   12.4338 H   0  0  0  0  0  0  0  0  0  0  0  0
  -11.9481   -6.7014   11.8109 H   0  0  0  0  0  0  0  0  0  0  0  0
  -13.7014   -6.5186   11.7996 H   0  0  0  0  0  0  0  0  0  0  0  0
   -6.2593  -11.4931   -0.8118 H   0  0  0  0  0  0  0  0  0  0  0  0
  -11.4703  -10.6633    6.8608 H   0  0  0  0  0  0  0  0  0  0  0  0
   -4.1598  -11.1122    5.6094 H   0  0  0  0  0  0  0  0  0  0  0  0
  -10.5082   -8.1794   11.2833 H   0  0  0  0  0  0  0  0  0  0  0  0
   -2.2187   -9.1007   10.1563 H   0  0  0  0  0  0  0  0  0  0  0  0
   -3.7510   -8.4739   11.2649 H   0  0  0  0  0  0  0  0  0  0  0  0
   -2.5146  -10.5029   -6.8851 H   0  0  0  0  0  0  0  0  0  0  0  0
  -13.4832  -14.0894    0.8393 H   0  0  0  0  0  0  0  0  0  0  0  0
   -6.4777   -7.1473   -6.9975 H   0  0  0  0  0  0  0  0  0  0  0  0
   -7.2626  -15.7872    5.0398 H   0  0  0  0  0  0  0  0  0  0  0  0
   -8.8331  -11.4935   -1.5085 H   0  0  0  0  0  0  0  0  0  0  0  0
   -8.9837  -11.4981    7.3854 H   0  0  0  0  0  0  0  0  0  0  0  0
  1  3  2  0  0  0  0
  1  9  1  0  0  0  0
  1 87  1  0  0  0  0
  2  4  2  0  0  0  0
  2 10  1  0  0  0  0
  2 88  1  0  0  0  0
  3 27  1  0  0  0  0
  3 89  1  0  0  0  0
  4 28  1  0  0  0  0
  4 90  1  0  0  0  0
  5  7  2  0  0  0  0
  5 29  1  0  0  0  0
  5 91  1  0  0  0  0
  6  8  2  0  0  0  0
  6 30  1  0  0  0  0
  6 92  1  0  0  0  0
  7 31  1  0  0  0  0
  7 93  1  0  0  0  0
  8 32  1  0  0  0  0
  8 94  1  0  0  0  0
  9 33  2  0  0  0  0
  9 95  1  0  0  0  0
 10 34  2  0  0  0  0
 10 96  1  0  0  0  0
 11 13  2  0  0  0  0
 11 35  1  0  0  0  0
 11 97  1  0  0  0  0
 12 14  2  0  0  0  0
 12 36  1  0  0  0  0
 12 98  1  0  0  0  0
 13 39  1  0  0  0  0
 13 99  1  0  0  0  0
 14 40  1  0  0  0  0
 14100  1  0  0  0  0
 15 23  1  0  0  0  0
 15 41  2  0  0  0  0
 15101  1  0  0  0  0
 16 24  1  0  0  0  0
 16 42  2  0  0  0  0
 16102  1  0  0  0  0
 17 27  2  0  0  0  0
 17 33  1  0  0  0  0
 17103  1  0  0  0  0
 18 28  2  0  0  0  0
 18 34  1  0  0  0  0
 18104  1  0  0  0  0
 19 29  2  0  0  0  0
 19 37  1  0  0  0  0
 19105  1  0  0  0  0
 20 30  2  0  0  0  0
 20 38  1  0  0  0  0
 20106  1  0  0  0  0
 21 41  1  0  0  0  0
 21 43  2  0  0  0  0
 21107  1  0  0  0  0
 22 42  1  0  0  0  0
 22 44  2  0  0  0  0
 22108  1  0  0  0  0
 23 25  1  0  0  0  0
 23 39  2  0  0  0  0
 24 26  1  0  0  0  0
 24 40  2  0  0  0  0
 25 35  2  0  0  0  0
 25 43  1  0  0  0  0
 26 36  2  0  0  0  0
 26 44  1  0  0  0  0
 27 45  1  0  0  0  0
 28 46  1  0  0  0  0
 29 47  1  0  0  0  0
 30 48  1  0  0  0  0
 31 37  2  0  0  0  0
 31 50  1  0  0  0  0
 32 38  2  0  0  0  0
 32 51  1  0  0  0  0
 33 56  1  0  0  0  0
 34 57  1  0  0  0  0
 35 52  1  0  0  0  0
 36 53  1  0  0  0  0
 37 54  1  0  0  0  0
 38 55  1  0  0  0  0
 39 81  1  0  0  0  0
 40 82  1  0  0  0  0
 41 83  1  0  0  0  0
 42 84  1  0  0  0  0
 43 85  1  0  0  0  0
 44 86  1  0  0  0  0
 45 54  1  0  0  0  0
 45 58  2  0  0  0  0
 46 55  1  0  0  0  0
 46 59  2  0  0  0  0
 47 52  1  0  0  0  0
 47 60  2  0  0  0  0
 48 53  1  0  0  0  0
 48 61  2  0  0  0  0
 49 56  1  0  0  0  0
 49 57  1  0  0  0  0
 49 62  2  0  0  0  0
 50109  1  0  0  0  0
 50110  1  0  0  0  0
 50111  1  0  0  0  0
 51112  1  0  0  0  0
 51113  1  0  0  0  0
 51114  1  0  0  0  0
 52115  1  0  0  0  0
 53116  1  0  0  0  0
 54117  1  0  0  0  0
 55118  1  0  0  0  0
 56119  1  0  0  0  0
 57120  1  0  0  0  0
 63 81  2  0  0  0  0
 64 81  2  0  0  0  0
 65 82  2  0  0  0  0
 66 82  2  0  0  0  0
 67 83  2  0  0  0  0
 68 83  2  0  0  0  0
 69 84  2  0  0  0  0
 70 84  2  0  0  0  0
 71 85  2  0  0  0  0
 72 85  2  0  0  0  0
 73 86  2  0  0  0  0
 74 86  2  0  0  0  0
 75 81  1  0  0  0  0
 75121  1  0  0  0  0
 76 82  1  0  0  0  0
 76122  1  0  0  0  0
 77 83  1  0  0  0  0
 77123  1  0  0  0  0
 78 84  1  0  0  0  0
 78124  1  0  0  0  0
 79 85  1  0  0  0  0
 79125  1  0  0  0  0
 80 86  1  0  0  0  0
 80126  1  0  0  0  0
M  END
$$$$
DrugBank_4344
 OpenBabel01151909533D

 28 29  0  0  0  0  0  0  0  0999 V2000
    1.8846   -1.0357   -0.1124 C   0  0  0  0  0  0  0  0  0  0  0  0
    1.0038   -1.8943    0.5453 C   0  0  0  0  0  0  0  0  0  0  0  0
    2.7230   -0.1986    0.6238 C   0  0  0  0  0  0  0  0  0  0  0  0
    0.9613   -1.9157    1.9394 C   0  0  0  0  0  0  0  0  0  0  0  0
    2.6805   -0.2201    2.0179 C   0  0  0  0  0  0  0  0  0  0  0  0
    1.4309   -2.2015    4.9255 C   0  0  0  0  0  0  0  0  0  0  0  0
    1.7997   -1.0786    2.6757 C   0  0  0  0  0  0  0  0  0  0  0  0
    1.7561   -1.1004    4.1109 C   0  0  0  0  0  0  0  0  0  0  0  0
    1.5302   -1.7209    6.2083 C   0  0  0  0  0  0  0  0  0  0  0  0
    2.1255    0.5214    7.1661 C   0  0  0  0  0  0  0  0  0  0  0  0
    2.0405   -0.0029    4.8170 N   0  0  0  0  0  0  0  0  0  0  0  0
    1.8943   -0.4119    6.0888 N   0  0  0  0  0  0  0  0  0  0  0  0
    1.2962   -2.4594    7.4323 N   0  0  0  0  0  0  0  0  0  0  0  0
    0.0962   -4.5945    6.5785 O   0  0  0  0  0  0  0  0  0  0  0  0
   -0.4597   -3.6719    8.8493 O   0  0  0  0  0  0  0  0  0  0  0  0
   -1.2830   -2.5314    6.8037 O   0  0  0  0  0  0  0  0  0  0  0  0
   -0.1096   -3.4569    7.4567 S   0  0  0  0  0  0  0  0  0  0  0  0
    1.9185   -1.0196   -1.1979 H   0  0  0  0  0  0  0  0  0  0  0  0
    0.3519   -2.5470   -0.0277 H   0  0  0  0  0  0  0  0  0  0  0  0
    3.4095    0.4689    0.1115 H   0  0  0  0  0  0  0  0  0  0  0  0
    0.2692   -2.5907    2.4375 H   0  0  0  0  0  0  0  0  0  0  0  0
    3.3406    0.4387    2.5774 H   0  0  0  0  0  0  0  0  0  0  0  0
    1.1615   -3.2051    4.6264 H   0  0  0  0  0  0  0  0  0  0  0  0
    3.1816    0.4629    7.4423 H   0  0  0  0  0  0  0  0  0  0  0  0
    1.8728    1.5319    6.8330 H   0  0  0  0  0  0  0  0  0  0  0  0
    1.4915    0.2558    8.0167 H   0  0  0  0  0  0  0  0  0  0  0  0
    1.4323   -1.8860    8.2724 H   0  0  0  0  0  0  0  0  0  0  0  0
   -1.4056   -1.6478    7.2240 H   0  0  0  0  0  0  0  0  0  0  0  0
  1  2  2  0  0  0  0
  1  3  1  0  0  0  0
  1 18  1  0  0  0  0
  2  4  1  0  0  0  0
  2 19  1  0  0  0  0
  3  5  2  0  0  0  0
  3 20  1  0  0  0  0
  4  7  2  0  0  0  0
  4 21  1  0  0  0  0
  5  7  1  0  0  0  0
  5 22  1  0  0  0  0
  6  8  1  0  0  0  0
  6  9  2  0  0  0  0
  6 23  1  0  0  0  0
  7  8  1  0  0  0  0
  8 11  2  0  0  0  0
  9 12  1  0  0  0  0
  9 13  1  0  0  0  0
 10 12  1  0  0  0  0
 10 24  1  0  0  0  0
 10 25  1  0  0  0  0
 10 26  1  0  0  0  0
 11 12  1  0  0  0  0
 13 17  1  0  0  0  0
 13 27  1  0  0  0  0
 14 17  2  0  0  0  0
 15 17  2  0  0  0  0
 16 17  1  0  0  0  0
 16 28  1  0  0  0  0
M  END
$$$$
DrugBank_1721
 OpenBabel01151909533D

 57 60  0  0  1  0  0  0  0  0999 V2000
    1.6210    3.7616   -1.3666 C   0  0  0  0  0  0  0  0  0  0  0  0
    1.3331    3.3235   -2.6570 C   0  0  0  0  0  0  0  0  0  0  0  0
    1.3913    2.9345   -0.2612 C   0  0  0  0  0  0  0  0  0  0  0  0
    0.8084    2.0485   -2.8838 C   0  0  0  0  0  0  0  0  0  0  0  0
    0.8596    1.6443   -0.4621 C   0  0  0  0  0  0  0  0  0  0  0  0
    0.5103    0.5617    0.3892 C   0  0  0  0  0  0  0  0  0  0  0  0
    0.5818    1.2312   -1.7703 C   0  0  0  0  0  0  0  0  0  0  0  0
    0.0155   -0.4540   -0.3985 C   0  0  0  0  0  0  0  0  0  0  0  0
    0.5832    0.3742    1.8256 C   0  0  0  0  0  0  0  0  0  0  0  0
    0.2376   -1.0208    2.3473 C   0  0  0  0  0  0  0  0  0  0  0  0
   -2.2157   -3.5959   -0.1089 C   0  0  0  0  0  0  0  0  0  0  0  0
   -2.4934   -3.4489    1.3815 C   0  0  0  0  0  0  0  0  0  0  0  0
   -1.6826   -2.2893   -0.6894 C   0  0  0  0  0  0  0  0  0  0  0  0
   -1.2790   -2.8914    2.1231 C   0  0  0  0  0  0  0  0  0  0  0  0
   -0.4748   -1.7742    0.1098 C   0  0  2  0  0  0  0  0  0  0  0  0
   -2.0078   -3.4665   -8.9028 C   0  0  0  0  0  0  0  0  0  0  0  0
   -2.2852   -1.0173   -8.4064 C   0  0  0  0  0  0  0  0  0  0  0  0
   -1.4834   -0.4259   -3.5744 C   0  0  0  0  0  0  0  0  0  0  0  0
   -0.1810   -0.8421   -2.8879 C   0  0  0  0  0  0  0  0  0  0  0  0
   -1.7762   -1.2569   -4.8186 C   0  0  0  0  0  0  0  0  0  0  0  0
   -2.0128   -2.3955   -7.8221 C   0  0  0  0  0  0  0  0  0  0  0  0
    0.0837   -0.0532   -1.7028 N   0  0  0  0  0  0  0  0  0  0  0  0
   -0.8494   -1.6124    1.5412 N   0  0  2  0  0  0  0  0  0  0  0  0
   -0.7533   -1.1228   -5.8188 N   0  0  0  0  0  0  0  0  0  0  0  0
    0.9694    1.2606    2.5827 O   0  0  0  0  0  0  0  0  0  0  0  0
   -0.3629   -3.6521   -6.2255 O   0  0  0  0  0  0  0  0  0  0  0  0
    0.5642   -1.9942   -7.8833 O   0  0  0  0  0  0  0  0  0  0  0  0
   -0.4657   -2.3979   -6.9453 S   0  0  0  0  0  0  0  0  0  0  0  0
    2.0300    4.7571   -1.2143 H   0  0  0  0  0  0  0  0  0  0  0  0
    1.5197    3.9819   -3.5014 H   0  0  0  0  0  0  0  0  0  0  0  0
    1.6229    3.2934    0.7377 H   0  0  0  0  0  0  0  0  0  0  0  0
    0.5873    1.7140   -3.8920 H   0  0  0  0  0  0  0  0  0  0  0  0
    1.1433   -1.6387    2.3299 H   0  0  0  0  0  0  0  0  0  0  0  0
   -0.0923   -0.9035    3.3862 H   0  0  0  0  0  0  0  0  0  0  0  0
   -1.4792   -4.3937   -0.2663 H   0  0  0  0  0  0  0  0  0  0  0  0
   -3.1301   -3.8949   -0.6330 H   0  0  0  0  0  0  0  0  0  0  0  0
   -3.3516   -2.7807    1.5282 H   0  0  0  0  0  0  0  0  0  0  0  0
   -2.7710   -4.4212    1.8038 H   0  0  0  0  0  0  0  0  0  0  0  0
   -1.4207   -2.5003   -1.7286 H   0  0  0  0  0  0  0  0  0  0  0  0
   -2.4846   -1.5390   -0.7036 H   0  0  0  0  0  0  0  0  0  0  0  0
   -1.5618   -2.7477    3.1730 H   0  0  0  0  0  0  0  0  0  0  0  0
   -0.4609   -3.6231    2.1030 H   0  0  0  0  0  0  0  0  0  0  0  0
    0.3485   -2.4979    0.0245 H   0  0  0  0  0  0  0  0  0  0  0  0
   -1.2489   -3.2520   -9.6622 H   0  0  0  0  0  0  0  0  0  0  0  0
   -1.7999   -4.4562   -8.4815 H   0  0  0  0  0  0  0  0  0  0  0  0
   -2.9807   -3.5193   -9.4030 H   0  0  0  0  0  0  0  0  0  0  0  0
   -1.5319   -0.7546   -9.1562 H   0  0  0  0  0  0  0  0  0  0  0  0
   -2.2769   -0.2462   -7.6283 H   0  0  0  0  0  0  0  0  0  0  0  0
   -3.2677   -0.9868   -8.8896 H   0  0  0  0  0  0  0  0  0  0  0  0
   -1.4405    0.6382   -3.8389 H   0  0  0  0  0  0  0  0  0  0  0  0
   -2.3179   -0.5413   -2.8714 H   0  0  0  0  0  0  0  0  0  0  0  0
    0.6788   -0.7273   -3.5581 H   0  0  0  0  0  0  0  0  0  0  0  0
   -0.2165   -1.8952   -2.5846 H   0  0  0  0  0  0  0  0  0  0  0  0
   -1.8691   -2.3198   -4.5735 H   0  0  0  0  0  0  0  0  0  0  0  0
   -2.7154   -0.9293   -5.2756 H   0  0  0  0  0  0  0  0  0  0  0  0
   -2.7791   -2.6333   -7.0764 H   0  0  0  0  0  0  0  0  0  0  0  0
   -0.6226   -0.1635   -6.2090 H   0  0  0  0  0  0  0  0  0  0  0  0
  1  2  2  0  0  0  0
  1  3  1  0  0  0  0
  1 29  1  0  0  0  0
  2  4  1  0  0  0  0
  2 30  1  0  0  0  0
  3  5  2  0  0  0  0
  3 31  1  0  0  0  0
  4  7  2  0  0  0  0
  4 32  1  0  0  0  0
  5  6  1  0  0  0  0
  5  7  1  0  0  0  0
  6  8  2  0  0  0  0
  6  9  1  0  0  0  0
  7 22  1  0  0  0  0
  8 15  1  0  0  0  0
  8 22  1  0  0  0  0
  9 10  1  0  0  0  0
  9 25  2  0  0  0  0
 10 33  1  0  0  0  0
 10 34  1  0  0  0  0
 11 12  1  0  0  0  0
 11 13  1  0  0  0  0
 11 35  1  0  0  0  0
 11 36  1  0  0  0  0
 12 14  1  0  0  0  0
 12 37  1  0  0  0  0
 12 38  1  0  0  0  0
 13 15  1  0  0  0  0
 13 39  1  0  0  0  0
 13 40  1  0  0  0  0
 14 23  1  0  0  0  0
 14 41  1  0  0  0  0
 14 42  1  0  0  0  0
 15 23  1  1  0  0  0
 15 43  1  0  0  0  0
 16 21  1  0  0  0  0
 16 44  1  0  0  0  0
 16 45  1  0  0  0  0
 16 46  1  0  0  0  0
 17 21  1  0  0  0  0
 17 47  1  0  0  0  0
 17 48  1  0  0  0  0
 17 49  1  0  0  0  0
 18 19  1  0  0  0  0
 18 20  1  0  0  0  0
 18 50  1  0  0  0  0
 18 51  1  0  0  0  0
 19 22  1  0  0  0  0
 19 52  1  0  0  0  0
 19 53  1  0  0  0  0
 20 24  1  0  0  0  0
 20 54  1  0  0  0  0
 20 55  1  0  0  0  0
 21 28  1  0  0  0  0
 21 56  1  0  0  0  0
 23 10  1  1  0  0  0
 24 28  1  0  0  0  0
 24 57  1  0  0  0  0
 26 28  2  0  0  0  0
 27 28  2  0  0  0  0
M  END
$$$$
DrugBank_4346
 OpenBabel01151909533D

 66 69  0  0  0  0  0  0  0  0999 V2000
   -3.0241    1.3687   -2.7569 C   0  0  0  0  0  0  0  0  0  0  0  0
   -2.6352    0.2740   -3.5220 C   0  0  0  0  0  0  0  0  0  0  0  0
   -2.3804    1.2310   -1.5418 C   0  0  0  0  0  0  0  0  0  0  0  0
   -1.8188   -0.4912   -2.7112 C   0  0  0  0  0  0  0  0  0  0  0  0
   -2.3094    2.2912   -0.4696 C   0  0  0  0  0  0  0  0  0  0  0  0
   -1.0158   -1.6746   -3.1520 C   0  0  0  0  0  0  0  0  0  0  0  0
    1.0110   -3.1998   -0.1072 C   0  0  0  0  0  0  0  0  0  0  0  0
   -0.7151   -2.7524   -2.4123 C   0  0  0  0  0  0  0  0  0  0  0  0
   -1.0441    3.3716    1.4385 C   0  0  0  0  0  0  0  0  0  0  0  0
    3.1503   -0.6838    1.2092 C   0  0  0  0  0  0  0  0  0  0  0  0
    0.1324    3.0957    2.0316 C   0  0  0  0  0  0  0  0  0  0  0  0
    2.9492   -1.8947    0.6780 C   0  0  0  0  0  0  0  0  0  0  0  0
    1.5382   -2.0540    0.3708 C   0  0  0  0  0  0  0  0  0  0  0  0
   -1.3079    2.3551    0.4268 C   0  0  0  0  0  0  0  0  0  0  0  0
   -0.4768   -3.3006   -0.1958 C   0  0  0  0  0  0  0  0  0  0  0  0
    1.8232   -0.0212    1.1830 C   0  0  0  0  0  0  0  0  0  0  0  0
    0.5586    1.8523    1.3617 C   0  0  0  0  0  0  0  0  0  0  0  0
   -2.0074    4.8596    3.0673 C   0  0  0  0  0  0  0  0  0  0  0  0
    5.0380   -0.6008    2.7009 C   0  0  0  0  0  0  0  0  0  0  0  0
   -1.9505   -2.9582    1.7023 C   0  0  0  0  0  0  0  0  0  0  0  0
   -1.8680    4.5014    1.7785 C   0  0  0  0  0  0  0  0  0  0  0  0
    4.3347   -0.0498    1.6867 C   0  0  0  0  0  0  0  0  0  0  0  0
   -1.0810   -3.7374    1.0861 C   0  0  0  0  0  0  0  0  0  0  0  0
   -4.6125   -1.8350   -4.3812 C   0  0  0  0  0  0  0  0  0  0  0  0
   -3.8755    2.4940   -3.2066 C   0  0  0  0  0  0  0  0  0  0  0  0
    0.9328    3.7330    3.0988 C   0  0  0  0  0  0  0  0  0  0  0  0
    3.9637   -2.9651    0.4418 C   0  0  0  0  0  0  0  0  0  0  0  0
   -0.6303   -5.0634    1.5702 C   0  0  0  0  0  0  0  0  0  0  0  0
   -2.9965    0.0169   -4.9351 C   0  0  0  0  0  0  0  0  0  0  0  0
   -4.4173   -0.5379   -5.1284 C   0  0  0  0  0  0  0  0  0  0  0  0
   -1.7647    0.0410   -1.4864 N   0  0  0  0  0  0  0  0  0  0  0  0
    0.9283   -0.8925    0.6969 N   0  0  0  0  0  0  0  0  0  0  0  0
   -1.2609   -3.0509   -1.1958 N   0  0  0  0  0  0  0  0  0  0  0  0
   -0.2855    1.4452    0.4598 N   0  0  0  0  0  0  0  0  0  0  0  0
   -5.0304   -1.9032   -3.2324 O   0  0  0  0  0  0  0  0  0  0  0  0
    1.6652    1.2077    1.6030 O   0  0  0  0  0  0  0  0  0  0  0  0
   -4.2489   -2.9213   -5.1063 O   0  0  0  0  0  0  0  0  0  0  0  0
   -3.0741    3.0610   -0.5015 H   0  0  0  0  0  0  0  0  0  0  0  0
   -0.6077   -1.6137   -4.1580 H   0  0  0  0  0  0  0  0  0  0  0  0
    1.5828   -4.0946   -0.3219 H   0  0  0  0  0  0  0  0  0  0  0  0
   -0.0790   -3.5193   -2.8481 H   0  0  0  0  0  0  0  0  0  0  0  0
   -2.6210    5.7059    3.3573 H   0  0  0  0  0  0  0  0  0  0  0  0
   -1.5069    4.3078    3.8560 H   0  0  0  0  0  0  0  0  0  0  0  0
    5.9411   -0.1303    3.0751 H   0  0  0  0  0  0  0  0  0  0  0  0
    4.7220   -1.5265    3.1700 H   0  0  0  0  0  0  0  0  0  0  0  0
   -2.4265   -3.2216    2.6417 H   0  0  0  0  0  0  0  0  0  0  0  0
   -2.2181   -2.0014    1.2657 H   0  0  0  0  0  0  0  0  0  0  0  0
   -2.3750    5.0609    0.9891 H   0  0  0  0  0  0  0  0  0  0  0  0
    4.6840    0.8893    1.2350 H   0  0  0  0  0  0  0  0  0  0  0  0
   -4.9388    2.2805   -3.0196 H   0  0  0  0  0  0  0  0  0  0  0  0
   -3.6213    3.4318   -2.6877 H   0  0  0  0  0  0  0  0  0  0  0  0
   -3.7537    2.6939   -4.2831 H   0  0  0  0  0  0  0  0  0  0  0  0
    0.6539    3.3331    4.0792 H   0  0  0  0  0  0  0  0  0  0  0  0
    0.7710    4.8163    3.1064 H   0  0  0  0  0  0  0  0  0  0  0  0
    2.0009    3.5501    2.9397 H   0  0  0  0  0  0  0  0  0  0  0  0
    4.0314   -3.6093    1.3182 H   0  0  0  0  0  0  0  0  0  0  0  0
    4.9379   -2.5153    0.2499 H   0  0  0  0  0  0  0  0  0  0  0  0
    3.6755   -3.5628   -0.4229 H   0  0  0  0  0  0  0  0  0  0  0  0
    0.2532   -4.9738    2.2115 H   0  0  0  0  0  0  0  0  0  0  0  0
   -0.3616   -5.7092    0.7272 H   0  0  0  0  0  0  0  0  0  0  0  0
   -1.4198   -5.5706    2.1354 H   0  0  0  0  0  0  0  0  0  0  0  0
   -2.8838    0.9322   -5.5476 H   0  0  0  0  0  0  0  0  0  0  0  0
   -2.2840   -0.7045   -5.3779 H   0  0  0  0  0  0  0  0  0  0  0  0
   -5.1634    0.1662   -4.7401 H   0  0  0  0  0  0  0  0  0  0  0  0
   -4.6573   -0.6716   -6.1893 H   0  0  0  0  0  0  0  0  0  0  0  0
   -3.9302   -2.7338   -6.0149 H   0  0  0  0  0  0  0  0  0  0  0  0
  1  2  1  0  0  0  0
  1  3  2  0  0  0  0
  1 25  1  0  0  0  0
  2  4  2  0  0  0  0
  2 29  1  0  0  0  0
  3  5  1  0  0  0  0
  3 31  1  0  0  0  0
  4  6  1  0  0  0  0
  4 31  1  0  0  0  0
  5 14  2  0  0  0  0
  5 38  1  0  0  0  0
  6  8  2  0  0  0  0
  6 39  1  0  0  0  0
  7 13  2  0  0  0  0
  7 15  1  0  0  0  0
  7 40  1  0  0  0  0
  8 33  1  0  0  0  0
  8 41  1  0  0  0  0
  9 11  2  0  0  0  0
  9 14  1  0  0  0  0
  9 21  1  0  0  0  0
 10 12  2  0  0  0  0
 10 16  1  0  0  0  0
 10 22  1  0  0  0  0
 11 17  1  0  0  0  0
 11 26  1  0  0  0  0
 12 13  1  0  0  0  0
 12 27  1  0  0  0  0
 13 32  1  0  0  0  0
 14 34  1  0  0  0  0
 15 23  1  0  0  0  0
 15 33  2  0  0  0  0
 16 32  1  0  0  0  0
 16 36  2  0  0  0  0
 17 34  2  0  0  0  0
 17 36  1  0  0  0  0
 18 21  2  0  0  0  0
 18 42  1  0  0  0  0
 18 43  1  0  0  0  0
 19 22  2  0  0  0  0
 19 44  1  0  0  0  0
 19 45  1  0  0  0  0
 20 23  2  0  0  0  0
 20 46  1  0  0  0  0
 20 47  1  0  0  0  0
 21 48  1  0  0  0  0
 22 49  1  0  0  0  0
 23 28  1  0  0  0  0
 24 30  1  0  0  0  0
 24 35  2  0  0  0  0
 24 37  1  0  0  0  0
 25 50  1  0  0  0  0
 25 51  1  0  0  0  0
 25 52  1  0  0  0  0
 26 53  1  0  0  0  0
 26 54  1  0  0  0  0
 26 55  1  0  0  0  0
 27 56  1  0  0  0  0
 27 57  1  0  0  0  0
 27 58  1  0  0  0  0
 28 59  1  0  0  0  0
 28 60  1  0  0  0  0
 28 61  1  0  0  0  0
 29 30  1  0  0  0  0
 29 62  1  0  0  0  0
 29 63  1  0  0  0  0
 30 64  1  0  0  0  0
 30 65  1  0  0  0  0
 37 66  1  0  0  0  0
M  END
$$$$
DrugBank_1722
 OpenBabel01151909533D

  9  8  0  0  0  0  0  0  0  0999 V2000
    0.5753   -0.2064    0.0994 C   0  0  0  0  0  0  0  0  0  0  0  0
   -0.4742    0.5992   -0.0977 C   0  0  0  0  0  0  0  0  0  0  0  0
    0.5731   -1.5640    0.1487 N   0  0  0  0  0  0  0  0  0  0  0  0
   -0.3210    2.3192   -0.1369 S   0  0  0  0  0  0  0  0  0  0  0  0
    1.5752    0.1902    0.2443 H   0  0  0  0  0  0  0  0  0  0  0  0
   -1.4654    0.1813   -0.2407 H   0  0  0  0  0  0  0  0  0  0  0  0
    1.4366   -2.0429    0.3040 H   0  0  0  0  0  0  0  0  0  0  0  0
   -0.2917   -2.0505    0.0286 H   0  0  0  0  0  0  0  0  0  0  0  0
   -1.6112    2.6089   -0.3532 H   0  0  0  0  0  0  0  0  0  0  0  0
  1  2  2  0  0  0  0
  1  3  1  0  0  0  0
  1  5  1  0  0  0  0
  2  4  1  0  0  0  0
  2  6  1  0  0  0  0
  3  7  1  0  0  0  0
  3  8  1  0  0  0  0
  4  9  1  0  0  0  0
M  END
$$$$
DrugBank_1727
 OpenBabel01151909533D

 30 30  0  0  1  0  0  0  0  0999 V2000
    1.0242   -5.4419    6.4583 C   0  0  0  0  0  0  0  0  0  0  0  0
    1.9735   -5.2500    5.4545 C   0  0  0  0  0  0  0  0  0  0  0  0
    0.0205   -4.4943    6.6594 C   0  0  0  0  0  0  0  0  0  0  0  0
    1.9192   -4.1105    4.6519 C   0  0  0  0  0  0  0  0  0  0  0  0
   -0.0338   -3.3548    5.8568 C   0  0  0  0  0  0  0  0  0  0  0  0
    0.9156   -3.1629    4.8530 C   0  0  0  0  0  0  0  0  0  0  0  0
    0.5620    1.3484   -0.1375 C   0  0  0  0  0  0  0  0  0  0  0  0
    0.8568   -1.9391    3.9917 C   0  0  0  0  0  0  0  0  0  0  0  0
   -0.5589   -0.7827    0.5170 C   0  0  0  0  0  0  0  0  0  0  0  0
   -0.7576    0.6960    0.2184 C   0  0  2  0  0  0  0  0  0  0  0  0
   -1.6515    0.8989   -0.8953 N   0  0  0  0  0  0  0  0  0  0  0  0
    0.8328    1.8447   -1.2233 O   0  0  0  0  0  0  0  0  0  0  0  0
    1.3703   -3.0062    1.6576 O   0  0  0  0  0  0  0  0  0  0  0  0
   -0.9887   -3.1382    2.5750 O   0  0  0  0  0  0  0  0  0  0  0  0
    1.4536    1.2807    0.8857 O   0  0  0  0  0  0  0  0  0  0  0  0
   -0.0391   -0.9281    1.8330 O   0  0  0  0  0  0  0  0  0  0  0  0
    0.2628   -2.4311    2.3935 S   0  0  0  0  0  0  0  0  0  0  0  0
    1.0658   -6.3299    7.0823 H   0  0  0  0  0  0  0  0  0  0  0  0
    2.7544   -5.9883    5.2970 H   0  0  0  0  0  0  0  0  0  0  0  0
   -0.7194   -4.6439    7.4401 H   0  0  0  0  0  0  0  0  0  0  0  0
    2.6632   -3.9692    3.8723 H   0  0  0  0  0  0  0  0  0  0  0  0
   -0.8192   -2.6218    6.0208 H   0  0  0  0  0  0  0  0  0  0  0  0
    1.8414   -1.4808    3.8632 H   0  0  0  0  0  0  0  0  0  0  0  0
    0.1712   -1.1877    4.3936 H   0  0  0  0  0  0  0  0  0  0  0  0
    0.1584   -1.2313   -0.1784 H   0  0  0  0  0  0  0  0  0  0  0  0
   -1.5010   -1.3381    0.4483 H   0  0  0  0  0  0  0  0  0  0  0  0
   -1.2201    1.2215    1.0607 H   0  0  0  0  0  0  0  0  0  0  0  0
   -1.5821    1.7497   -1.4267 H   0  0  0  0  0  0  0  0  0  0  0  0
   -2.4494    0.2952   -0.9954 H   0  0  0  0  0  0  0  0  0  0  0  0
    1.1176    0.8601    1.7058 H   0  0  0  0  0  0  0  0  0  0  0  0
  1  2  2  0  0  0  0
  1  3  1  0  0  0  0
  1 18  1  0  0  0  0
  2  4  1  0  0  0  0
  2 19  1  0  0  0  0
  3  5  2  0  0  0  0
  3 20  1  0  0  0  0
  4  6  2  0  0  0  0
  4 21  1  0  0  0  0
  5  6  1  0  0  0  0
  5 22  1  0  0  0  0
  6  8  1  0  0  0  0
  7 10  1  0  0  0  0
  7 12  2  0  0  0  0
  7 15  1  0  0  0  0
  8 17  1  0  0  0  0
  8 23  1  0  0  0  0
  8 24  1  0  0  0  0
  9 10  1  0  0  0  0
  9 16  1  0  0  0  0
  9 25  1  0  0  0  0
  9 26  1  0  0  0  0
 10 11  1  0  0  0  0
 10 27  1  1  0  0  0
 11 28  1  0  0  0  0
 11 29  1  0  0  0  0
 13 17  2  0  0  0  0
 14 17  2  0  0  0  0
 15 30  1  0  0  0  0
 16 17  1  0  0  0  0
M  END
$$$$
DrugBank_1728
 OpenBabel01151909533D

 30 30  0  0  1  0  0  0  0  0999 V2000
    0.5459    0.7218   -0.4591 C   0  0  0  0  0  0  0  0  0  0  0  0
    0.7434   -0.5892   -0.5113 C   0  0  0  0  0  0  0  0  0  0  0  0
    1.5696   -2.1932   -2.1761 C   0  0  0  0  0  0  0  0  0  0  0  0
   -2.5797    2.7158    4.1248 C   0  0  0  0  0  0  0  0  0  0  0  0
   -0.8088    0.9542    0.0826 C   0  0  1  0  0  0  0  0  0  0  0  0
   -2.4458    2.5463    1.5997 C   0  0  0  0  0  0  0  0  0  0  0  0
    1.9442   -1.3142   -0.9928 C   0  0  2  0  0  0  0  0  0  0  0  0
   -2.7850    3.4327    2.8007 C   0  0  2  0  0  0  0  0  0  0  0  0
   -1.3663   -0.3862    0.3479 N   0  0  0  0  0  0  0  0  0  0  0  0
    2.5098   -2.1952    0.0275 N   0  0  0  0  0  0  0  0  0  0  0  0
   -2.0850    4.6922    2.7563 N   0  0  0  0  0  0  0  0  0  0  0  0
    1.2084   -3.3609   -2.1030 O   0  0  0  0  0  0  0  0  0  0  0  0
   -1.8197    3.1095    5.0014 O   0  0  0  0  0  0  0  0  0  0  0  0
   -0.3219   -1.3486   -0.0549 O   0  0  0  0  0  0  0  0  0  0  0  0
    1.6897   -1.5370   -3.3621 O   0  0  0  0  0  0  0  0  0  0  0  0
   -3.3115    1.5818    4.2390 O   0  0  0  0  0  0  0  0  0  0  0  0
   -0.7348    1.9620    1.5857 S   0  0  0  0  0  0  0  0  0  0  0  0
    1.2450    1.4806   -0.7777 H   0  0  0  0  0  0  0  0  0  0  0  0
   -1.4341    1.4666   -0.6550 H   0  0  0  0  0  0  0  0  0  0  0  0
   -2.6079    3.1020    0.6698 H   0  0  0  0  0  0  0  0  0  0  0  0
   -3.0969    1.6661    1.5781 H   0  0  0  0  0  0  0  0  0  0  0  0
    2.6943   -0.5815   -1.3204 H   0  0  0  0  0  0  0  0  0  0  0  0
   -3.8494    3.6933    2.7583 H   0  0  0  0  0  0  0  0  0  0  0  0
   -1.3696   -0.5453    1.3554 H   0  0  0  0  0  0  0  0  0  0  0  0
    2.5140   -1.8756    0.9711 H   0  0  0  0  0  0  0  0  0  0  0  0
    3.0462   -2.9780   -0.2761 H   0  0  0  0  0  0  0  0  0  0  0  0
   -1.9619    5.2121    3.6085 H   0  0  0  0  0  0  0  0  0  0  0  0
   -1.9141    5.1239    1.8639 H   0  0  0  0  0  0  0  0  0  0  0  0
    1.9873   -0.6048   -3.2913 H   0  0  0  0  0  0  0  0  0  0  0  0
   -3.8636    1.4200    3.4445 H   0  0  0  0  0  0  0  0  0  0  0  0
  1  2  2  0  0  0  0
  1  5  1  0  0  0  0
  1 18  1  0  0  0  0
  2  7  1  0  0  0  0
  2 14  1  0  0  0  0
  3  7  1  0  0  0  0
  3 12  2  0  0  0  0
  3 15  1  0  0  0  0
  4  8  1  0  0  0  0
  4 13  2  0  0  0  0
  4 16  1  0  0  0  0
  5  9  1  0  0  0  0
  5 17  1  0  0  0  0
  5 19  1  6  0  0  0
  6  8  1  0  0  0  0
  6 17  1  0  0  0  0
  6 20  1  0  0  0  0
  6 21  1  0  0  0  0
  7 10  1  0  0  0  0
  7 22  1  6  0  0  0
  8 11  1  0  0  0  0
  8 23  1  6  0  0  0
  9 14  1  0  0  0  0
  9 24  1  0  0  0  0
 10 25  1  0  0  0  0
 10 26  1  0  0  0  0
 11 27  1  0  0  0  0
 11 28  1  0  0  0  0
 15 29  1  0  0  0  0
 16 30  1  0  0  0  0
M  END
$$$$
DrugBank_1735
 OpenBabel01151909533D

 25 26  0  0  1  0  0  0  0  0999 V2000
   -0.7434    0.1867    1.9036 C   0  0  0  0  0  0  0  0  0  0  0  0
   -0.7585   -1.0042    0.9535 C   0  0  1  0  0  0  0  0  0  0  0  0
   -0.8487    0.8992   -0.3208 C   0  0  2  0  0  0  0  0  0  0  0  0
   -1.5656   -0.4316   -0.1923 C   0  0  1  0  0  0  0  0  0  0  0  0
    0.5617    0.6798   -0.8772 C   0  0  2  0  0  0  0  0  0  0  0  0
    1.3624   -0.2675    0.0255 C   0  0  1  0  0  0  0  0  0  0  0  0
    1.2782    2.2120   -3.4386 O   0  0  0  0  0  0  0  0  0  0  0  0
   -0.4085    3.4854   -2.0749 O   0  0  0  0  0  0  0  0  0  0  0  0
   -0.7400    1.3581    1.0493 O   0  0  0  0  0  0  0  0  0  0  0  0
    0.5622   -1.3532    0.5061 O   0  0  0  0  0  0  0  0  0  0  0  0
   -1.5237   -1.2369   -1.3478 O   0  0  0  0  0  0  0  0  0  0  0  0
    2.4639   -0.7658   -0.7336 O   0  0  0  0  0  0  0  0  0  0  0  0
    1.9992    4.1365   -2.0355 O   0  0  0  0  0  0  0  0  0  0  0  0
    1.2298    1.9354   -0.9665 O   0  0  0  0  0  0  0  0  0  0  0  0
    0.9219    2.9265   -2.2270 S   0  0  0  0  0  0  0  0  0  0  0  0
   -1.6556    0.2322    2.5071 H   0  0  0  0  0  0  0  0  0  0  0  0
    0.1297    0.2186    2.5611 H   0  0  0  0  0  0  0  0  0  0  0  0
   -1.2019   -1.9013    1.3934 H   0  0  0  0  0  0  0  0  0  0  0  0
   -1.3974    1.6412   -0.9085 H   0  0  0  0  0  0  0  0  0  0  0  0
   -2.6100   -0.2894    0.1115 H   0  0  0  0  0  0  0  0  0  0  0  0
    0.5001    0.2812   -1.8968 H   0  0  0  0  0  0  0  0  0  0  0  0
    1.7866    0.2755    0.8786 H   0  0  0  0  0  0  0  0  0  0  0  0
   -2.0645   -0.7984   -2.0295 H   0  0  0  0  0  0  0  0  0  0  0  0
    2.9548   -1.3601   -0.1462 H   0  0  0  0  0  0  0  0  0  0  0  0
    1.9746    4.5967   -1.1643 H   0  0  0  0  0  0  0  0  0  0  0  0
  1  2  1  0  0  0  0
  1  9  1  0  0  0  0
  1 16  1  0  0  0  0
  1 17  1  0  0  0  0
  2  4  1  6  0  0  0
  2 10  1  0  0  0  0
  2 18  1  0  0  0  0
  3  4  1  6  0  0  0
  3  9  1  0  0  0  0
  3 19  1  0  0  0  0
  4 11  1  0  0  0  0
  4 20  1  1  0  0  0
  5  3  1  1  0  0  0
  5 14  1  0  0  0  0
  5 21  1  0  0  0  0
  6  5  1  6  0  0  0
  6 10  1  0  0  0  0
  6 12  1  0  0  0  0
  6 22  1  0  0  0  0
  7 15  2  0  0  0  0
  8 15  2  0  0  0  0
 11 23  1  0  0  0  0
 12 24  1  0  0  0  0
 13 15  1  0  0  0  0
 13 25  1  0  0  0  0
 14 15  1  0  0  0  0
M  END
$$$$
DrugBank_1742
 OpenBabel01151909533D

 62 67  0  0  1  0  0  0  0  0999 V2000
    4.9045   -3.0209    2.3049 C   0  0  0  0  0  0  0  0  0  0  0  0
    2.4252   -1.6266  -11.4154 C   0  0  0  0  0  0  0  0  0  0  0  0
    2.2372   -2.8211  -10.7265 C   0  0  0  0  0  0  0  0  0  0  0  0
    4.1241   -3.6249    1.3192 C   0  0  0  0  0  0  0  0  0  0  0  0
    4.3259   -2.1177    3.1966 C   0  0  0  0  0  0  0  0  0  0  0  0
    2.3504   -0.4097  -10.7370 C   0  0  0  0  0  0  0  0  0  0  0  0
    1.9736   -2.8034   -9.3566 C   0  0  0  0  0  0  0  0  0  0  0  0
    2.0071    0.8426   -8.6594 C   0  0  0  0  0  0  0  0  0  0  0  0
    1.7434    0.8603   -7.2895 C   0  0  0  0  0  0  0  0  0  0  0  0
    2.7649   -3.3257    1.2250 C   0  0  0  0  0  0  0  0  0  0  0  0
    2.9667   -1.8185    3.1024 C   0  0  0  0  0  0  0  0  0  0  0  0
    4.3029   -1.6573   -4.7164 C   0  0  0  0  0  0  0  0  0  0  0  0
    4.4152    0.7452   -4.7309 C   0  0  0  0  0  0  0  0  0  0  0  0
    1.6302   -1.5511   -7.2789 C   0  0  0  0  0  0  0  0  0  0  0  0
    1.8919   -0.3299   -2.8927 C   0  0  0  0  0  0  0  0  0  0  0  0
    5.6498   -1.6684   -5.0411 C   0  0  0  0  0  0  0  0  0  0  0  0
    5.7572    0.6265   -5.0548 C   0  0  0  0  0  0  0  0  0  0  0  0
    2.0859   -0.3731   -9.3582 C   0  0  0  0  0  0  0  0  0  0  0  0
    1.8947   -1.5878   -8.6577 C   0  0  0  0  0  0  0  0  0  0  0  0
    1.5553   -0.3343   -6.6006 C   0  0  0  0  0  0  0  0  0  0  0  0
    3.6813   -0.4234   -4.5601 C   0  0  0  0  0  0  0  0  0  0  0  0
    2.2746   -0.3553   -4.2223 C   0  0  0  0  0  0  0  0  0  0  0  0
    2.1862   -2.4224    2.1167 C   0  0  0  0  0  0  0  0  0  0  0  0
    1.2824   -0.3136   -5.1810 C   0  0  0  0  0  0  0  0  0  0  0  0
    0.5424   -0.2643   -2.6099 C   0  0  0  0  0  0  0  0  0  0  0  0
   -1.0831    0.8475    0.5629 C   0  0  0  0  0  0  0  0  0  0  0  0
   -1.0823    0.4706   -0.9175 C   0  0  0  0  0  0  0  0  0  0  0  0
    0.5206   -1.3529   -0.3815 C   0  0  0  0  0  0  0  0  0  0  0  0
    0.4697   -0.9111    1.0890 C   0  0  2  0  0  0  0  0  0  0  0  0
    0.7210   -2.0992    2.0156 C   0  0  0  0  0  0  0  0  0  0  0  0
    6.3956   -0.5543   -5.2150 N   0  0  0  0  0  0  0  0  0  0  0  0
   -0.0309   -0.2497   -4.8755 N   0  0  0  0  0  0  0  0  0  0  0  0
   -0.4069   -0.2244   -3.5687 N   0  0  0  0  0  0  0  0  0  0  0  0
   -0.8331   -0.3175    1.4093 N   0  0  0  0  0  0  0  0  0  0  0  0
    0.1554   -0.2392   -1.2653 N   0  0  0  0  0  0  0  0  0  0  0  0
    5.9625   -3.2551    2.3789 H   0  0  0  0  0  0  0  0  0  0  0  0
    2.6315   -1.6411  -12.4815 H   0  0  0  0  0  0  0  0  0  0  0  0
    2.2958   -3.7680  -11.2552 H   0  0  0  0  0  0  0  0  0  0  0  0
    4.5742   -4.3291    0.6255 H   0  0  0  0  0  0  0  0  0  0  0  0
    4.9330   -1.6481    3.9648 H   0  0  0  0  0  0  0  0  0  0  0  0
    2.4999    0.5115  -11.2961 H   0  0  0  0  0  0  0  0  0  0  0  0
    1.8303   -3.7493   -8.8387 H   0  0  0  0  0  0  0  0  0  0  0  0
    2.1505    1.7880   -9.1780 H   0  0  0  0  0  0  0  0  0  0  0  0
    1.6882    1.8163   -6.7741 H   0  0  0  0  0  0  0  0  0  0  0  0
    2.1646   -3.8010    0.4537 H   0  0  0  0  0  0  0  0  0  0  0  0
    2.5245   -1.1135    3.8014 H   0  0  0  0  0  0  0  0  0  0  0  0
    3.7632   -2.5907   -4.5924 H   0  0  0  0  0  0  0  0  0  0  0  0
    3.9642    1.7256   -4.6165 H   0  0  0  0  0  0  0  0  0  0  0  0
    1.4819   -2.4825   -6.7334 H   0  0  0  0  0  0  0  0  0  0  0  0
    2.6288   -0.3607   -2.0948 H   0  0  0  0  0  0  0  0  0  0  0  0
    6.1807   -2.6052   -5.1759 H   0  0  0  0  0  0  0  0  0  0  0  0
    6.3737    1.5077   -5.1977 H   0  0  0  0  0  0  0  0  0  0  0  0
   -0.3286    1.6200    0.7579 H   0  0  0  0  0  0  0  0  0  0  0  0
   -2.0562    1.2777    0.8238 H   0  0  0  0  0  0  0  0  0  0  0  0
   -1.9495   -0.1647   -1.1421 H   0  0  0  0  0  0  0  0  0  0  0  0
   -1.1754    1.3848   -1.5167 H   0  0  0  0  0  0  0  0  0  0  0  0
    1.5356   -1.6983   -0.6173 H   0  0  0  0  0  0  0  0  0  0  0  0
   -0.1631   -2.1958   -0.5521 H   0  0  0  0  0  0  0  0  0  0  0  0
    1.2563   -0.1663    1.2698 H   0  0  0  0  0  0  0  0  0  0  0  0
    0.1705   -2.9707    1.6474 H   0  0  0  0  0  0  0  0  0  0  0  0
    0.3177   -1.8777    3.0089 H   0  0  0  0  0  0  0  0  0  0  0  0
   -0.8472   -0.0321    2.3882 H   0  0  0  0  0  0  0  0  0  0  0  0
  1  4  2  0  0  0  0
  1  5  1  0  0  0  0
  1 36  1  0  0  0  0
  2  3  2  0  0  0  0
  2  6  1  0  0  0  0
  2 37  1  0  0  0  0
  3  7  1  0  0  0  0
  3 38  1  0  0  0  0
  4 10  1  0  0  0  0
  4 39  1  0  0  0  0
  5 11  2  0  0  0  0
  5 40  1  0  0  0  0
  6 18  2  0  0  0  0
  6 41  1  0  0  0  0
  7 19  2  0  0  0  0
  7 42  1  0  0  0  0
  8  9  2  0  0  0  0
  8 18  1  0  0  0  0
  8 43  1  0  0  0  0
  9 20  1  0  0  0  0
  9 44  1  0  0  0  0
 10 23  2  0  0  0  0
 10 45  1  0  0  0  0
 11 23  1  0  0  0  0
 11 46  1  0  0  0  0
 12 16  2  0  0  0  0
 12 21  1  0  0  0  0
 12 47  1  0  0  0  0
 13 17  1  0  0  0  0
 13 21  2  0  0  0  0
 13 48  1  0  0  0  0
 14 19  1  0  0  0  0
 14 20  2  0  0  0  0
 14 49  1  0  0  0  0
 15 22  2  0  0  0  0
 15 25  1  0  0  0  0
 15 50  1  0  0  0  0
 16 31  1  0  0  0  0
 16 51  1  0  0  0  0
 17 31  2  0  0  0  0
 17 52  1  0  0  0  0
 18 19  1  0  0  0  0
 20 24  1  0  0  0  0
 21 22  1  0  0  0  0
 22 24  1  0  0  0  0
 23 30  1  0  0  0  0
 24 32  2  0  0  0  0
 25 33  2  0  0  0  0
 25 35  1  0  0  0  0
 26 27  1  0  0  0  0
 26 34  1  0  0  0  0
 26 53  1  0  0  0  0
 26 54  1  0  0  0  0
 27 35  1  0  0  0  0
 27 55  1  0  0  0  0
 27 56  1  0  0  0  0
 28 29  1  0  0  0  0
 28 35  1  0  0  0  0
 28 57  1  0  0  0  0
 28 58  1  0  0  0  0
 29 30  1  0  0  0  0
 29 34  1  0  0  0  0
 29 59  1  1  0  0  0
 30 60  1  0  0  0  0
 30 61  1  0  0  0  0
 32 33  1  0  0  0  0
 34 62  1  0  0  0  0
M  END
$$$$
DrugBank_1744
 OpenBabel01151909533D

 78 81  0  0  1  0  0  0  0  0999 V2000
   -2.4514   -0.2362    0.3114 C   0  0  0  0  0  0  0  0  0  0  0  0
   -2.0150    0.3364   -0.8205 C   0  0  0  0  0  0  0  0  0  0  0  0
   -1.6896   -0.2992    1.5887 C   0  0  0  0  0  0  0  0  0  0  0  0
   -2.9273    0.3991   -2.0258 C   0  0  0  0  0  0  0  0  0  0  0  0
    0.5528   -2.4353    2.1352 C   0  0  0  0  0  0  0  0  0  0  0  0
    1.6360    1.4100    0.3322 C   0  0  0  0  0  0  0  0  0  0  0  0
    1.8752   -3.2009    1.9416 C   0  0  0  0  0  0  0  0  0  0  0  0
   -1.7612    2.5229   -2.7450 C   0  0  0  0  0  0  0  0  0  0  0  0
   -0.8680    2.4465   -1.5047 C   0  0  0  0  0  0  0  0  0  0  0  0
    2.5443    0.1660    0.2589 C   0  0  0  0  0  0  0  0  0  0  0  0
   -0.1937    0.0134    1.4855 C   0  0  2  0  0  0  0  0  0  0  0  0
    0.1082    1.1333    0.4430 C   0  0  2  0  0  0  0  0  0  0  0  0
    0.6951   -1.2076    1.2367 C   0  0  1  0  0  0  0  0  0  0  0  0
    2.7892   -2.2800    1.1008 C   0  0  1  0  0  0  0  0  0  0  0  0
   -3.1041    1.8366   -2.5120 C   0  0  1  0  0  0  0  0  0  0  0  0
   -0.6414    0.9975   -0.9563 C   0  0  1  0  0  0  0  0  0  0  0  0
    2.2018   -0.8672    1.3403 C   0  0  1  0  0  0  0  0  0  0  0  0
    0.1743    0.2084   -2.0083 C   0  0  0  0  0  0  0  0  0  0  0  0
    2.6391   -0.3155    2.7229 C   0  0  0  0  0  0  0  0  0  0  0  0
    5.1176   -1.8745    0.2826 C   0  0  0  0  0  0  0  0  0  0  0  0
    2.9047   -7.2061   -0.9472 C   0  0  0  0  0  0  0  0  0  0  0  0
    4.7848   -8.7062   -0.2538 C   0  0  0  0  0  0  0  0  0  0  0  0
    4.3141   -4.8389    0.4178 C   0  0  0  0  0  0  0  0  0  0  0  0
    4.6509   -3.9504    1.6196 C   0  0  0  0  0  0  0  0  0  0  0  0
    4.6345   -6.3223    0.6446 C   0  0  0  0  0  0  0  0  0  0  0  0
    4.2670   -2.4692    1.4117 C   0  0  2  0  0  0  0  0  0  0  0  0
    4.3831   -7.2612   -0.5506 C   0  0  0  0  0  0  0  0  0  0  0  0
   -5.7622    0.2825   -3.5437 O   0  0  0  0  0  0  0  0  0  0  0  0
   -6.0081    2.6707   -2.7936 O   0  0  0  0  0  0  0  0  0  0  0  0
   -5.9041    2.1136   -5.2229 O   0  0  0  0  0  0  0  0  0  0  0  0
   -3.8312    1.8411   -3.7363 O   0  0  0  0  0  0  0  0  0  0  0  0
   -5.4575    1.6913   -3.7118 S   0  0  0  0  0  0  0  0  0  0  0  0
   -3.4533   -0.6587    0.3430 H   0  0  0  0  0  0  0  0  0  0  0  0
   -2.1516    0.4295    2.2682 H   0  0  0  0  0  0  0  0  0  0  0  0
   -1.8507   -1.2776    2.0533 H   0  0  0  0  0  0  0  0  0  0  0  0
   -2.5327   -0.2310   -2.8321 H   0  0  0  0  0  0  0  0  0  0  0  0
   -3.9181   -0.0206   -1.8069 H   0  0  0  0  0  0  0  0  0  0  0  0
   -0.3032   -3.0556    1.8500 H   0  0  0  0  0  0  0  0  0  0  0  0
    0.4226   -2.1535    3.1860 H   0  0  0  0  0  0  0  0  0  0  0  0
    1.9312    1.9907    1.2158 H   0  0  0  0  0  0  0  0  0  0  0  0
    1.8532    2.0675   -0.5165 H   0  0  0  0  0  0  0  0  0  0  0  0
    2.3137   -3.4388    2.9173 H   0  0  0  0  0  0  0  0  0  0  0  0
    1.7073   -4.1496    1.4199 H   0  0  0  0  0  0  0  0  0  0  0  0
   -1.9300    3.5737   -3.0116 H   0  0  0  0  0  0  0  0  0  0  0  0
   -1.2576    2.0855   -3.6154 H   0  0  0  0  0  0  0  0  0  0  0  0
    0.0933    2.9197   -1.7382 H   0  0  0  0  0  0  0  0  0  0  0  0
   -1.3342    3.0661   -0.7261 H   0  0  0  0  0  0  0  0  0  0  0  0
    2.4679   -0.2944   -0.7306 H   0  0  0  0  0  0  0  0  0  0  0  0
    3.5907    0.4828    0.3516 H   0  0  0  0  0  0  0  0  0  0  0  0
    0.0733    0.4085    2.4743 H   0  0  0  0  0  0  0  0  0  0  0  0
   -0.3102    2.0412    0.9065 H   0  0  0  0  0  0  0  0  0  0  0  0
    0.4772   -1.5692    0.2244 H   0  0  0  0  0  0  0  0  0  0  0  0
    2.6458   -2.5450    0.0428 H   0  0  0  0  0  0  0  0  0  0  0  0
   -3.6848    2.4084   -1.7776 H   0  0  0  0  0  0  0  0  0  0  0  0
    1.1482    0.6685   -2.1116 H   0  0  0  0  0  0  0  0  0  0  0  0
   -0.3533    0.2377   -2.9526 H   0  0  0  0  0  0  0  0  0  0  0  0
    0.2797   -0.8148   -1.6722 H   0  0  0  0  0  0  0  0  0  0  0  0
    2.3950   -1.0478    3.4794 H   0  0  0  0  0  0  0  0  0  0  0  0
    2.1087    0.6076    2.9093 H   0  0  0  0  0  0  0  0  0  0  0  0
    3.7051   -0.1384    2.7020 H   0  0  0  0  0  0  0  0  0  0  0  0
    4.9252   -2.3841   -0.6676 H   0  0  0  0  0  0  0  0  0  0  0  0
    4.8939   -0.8107    0.1485 H   0  0  0  0  0  0  0  0  0  0  0  0
    6.1863   -1.9633    0.5052 H   0  0  0  0  0  0  0  0  0  0  0  0
    2.2600   -7.5434   -0.1284 H   0  0  0  0  0  0  0  0  0  0  0  0
    2.7107   -7.8443   -1.8160 H   0  0  0  0  0  0  0  0  0  0  0  0
    2.6112   -6.1849   -1.2122 H   0  0  0  0  0  0  0  0  0  0  0  0
    4.2321   -9.1050    0.6023 H   0  0  0  0  0  0  0  0  0  0  0  0
    4.5964   -9.3557   -1.1153 H   0  0  0  0  0  0  0  0  0  0  0  0
    5.8506   -8.7709   -0.0089 H   0  0  0  0  0  0  0  0  0  0  0  0
    4.8944   -4.5130   -0.4528 H   0  0  0  0  0  0  0  0  0  0  0  0
    3.2593   -4.7174    0.1470 H   0  0  0  0  0  0  0  0  0  0  0  0
    5.7234   -4.0255    1.8397 H   0  0  0  0  0  0  0  0  0  0  0  0
    4.1198   -4.3244    2.5024 H   0  0  0  0  0  0  0  0  0  0  0  0
    4.0484   -6.6758    1.5031 H   0  0  0  0  0  0  0  0  0  0  0  0
    5.6884   -6.3972    0.9434 H   0  0  0  0  0  0  0  0  0  0  0  0
    4.5063   -1.9167    2.3320 H   0  0  0  0  0  0  0  0  0  0  0  0
    4.9634   -6.9121   -1.4126 H   0  0  0  0  0  0  0  0  0  0  0  0
   -5.5997    3.0005   -5.5263 H   0  0  0  0  0  0  0  0  0  0  0  0
  1  2  2  0  0  0  0
  1  3  1  0  0  0  0
  1 33  1  0  0  0  0
  2  4  1  0  0  0  0
  2 16  1  0  0  0  0
  3 11  1  0  0  0  0
  3 34  1  0  0  0  0
  3 35  1  0  0  0  0
  4 15  1  0  0  0  0
  4 36  1  0  0  0  0
  4 37  1  0  0  0  0
  5  7  1  0  0  0  0
  5 13  1  0  0  0  0
  5 38  1  0  0  0  0
  5 39  1  0  0  0  0
  6 10  1  0  0  0  0
  6 12  1  0  0  0  0
  6 40  1  0  0  0  0
  6 41  1  0  0  0  0
  7 14  1  0  0  0  0
  7 42  1  0  0  0  0
  7 43  1  0  0  0  0
  8  9  1  0  0  0  0
  8 15  1  0  0  0  0
  8 44  1  0  0  0  0
  8 45  1  0  0  0  0
  9 16  1  0  0  0  0
  9 46  1  0  0  0  0
  9 47  1  0  0  0  0
 10 17  1  0  0  0  0
 10 48  1  0  0  0  0
 10 49  1  0  0  0  0
 11 12  1  6  0  0  0
 11 50  1  0  0  0  0
 12 16  1  6  0  0  0
 12 51  1  0  0  0  0
 13 11  1  1  0  0  0
 13 52  1  0  0  0  0
 14 17  1  1  0  0  0
 14 26  1  0  0  0  0
 14 53  1  0  0  0  0
 15 31  1  0  0  0  0
 15 54  1  1  0  0  0
 16 18  1  6  0  0  0
 17 13  1  1  0  0  0
 17 19  1  0  0  0  0
 18 55  1  0  0  0  0
 18 56  1  0  0  0  0
 18 57  1  0  0  0  0
 19 58  1  0  0  0  0
 19 59  1  0  0  0  0
 19 60  1  0  0  0  0
 20 26  1  0  0  0  0
 20 61  1  0  0  0  0
 20 62  1  0  0  0  0
 20 63  1  0  0  0  0
 21 27  1  0  0  0  0
 21 64  1  0  0  0  0
 21 65  1  0  0  0  0
 21 66  1  0  0  0  0
 22 27  1  0  0  0  0
 22 67  1  0  0  0  0
 22 68  1  0  0  0  0
 22 69  1  0  0  0  0
 23 24  1  0  0  0  0
 23 25  1  0  0  0  0
 23 70  1  0  0  0  0
 23 71  1  0  0  0  0
 24 26  1  0  0  0  0
 24 72  1  0  0  0  0
 24 73  1  0  0  0  0
 25 27  1  0  0  0  0
 25 74  1  0  0  0  0
 25 75  1  0  0  0  0
 26 76  1  1  0  0  0
 27 77  1  0  0  0  0
 28 32  2  0  0  0  0
 29 32  2  0  0  0  0
 30 32  1  0  0  0  0
 30 78  1  0  0  0  0
 31 32  1  0  0  0  0
M  END
$$$$
DrugBank_6711
 OpenBabel01151909533D

 79 82  0  0  1  0  0  0  0  0999 V2000
    5.8753    2.4550   -3.2893 C   0  0  0  0  0  0  0  0  0  0  0  0
    0.5741   -0.6436   -0.6743 C   0  0  0  0  0  0  0  0  0  0  0  0
    2.2353   -4.5724    0.3230 C   0  0  0  0  0  0  0  0  0  0  0  0
    1.8549    0.0662   -1.1495 C   0  0  0  0  0  0  0  0  0  0  0  0
    1.0659   -6.0391    3.6432 C   0  0  0  0  0  0  0  0  0  0  0  0
    3.1064   -3.3492   -0.0051 C   0  0  0  0  0  0  0  0  0  0  0  0
    0.7380   -6.5142    2.2332 C   0  0  0  0  0  0  0  0  0  0  0  0
   -0.9490   -4.5292    3.5892 C   0  0  0  0  0  0  0  0  0  0  0  0
   -2.0258   -3.8741    1.4023 C   0  0  0  0  0  0  0  0  0  0  0  0
    1.0743   -1.9055    0.0264 C   0  0  1  0  0  0  0  0  0  0  0  0
    0.9019   -4.2090    1.0295 C   0  0  1  0  0  0  0  0  0  0  0  0
   -1.2693   -4.9791    2.1486 C   0  0  1  0  0  0  0  0  0  0  0  0
    0.1168   -3.0910    0.2609 C   0  0  1  0  0  0  0  0  0  0  0  0
    3.0181   -0.9107   -0.8721 C   0  0  1  0  0  0  0  0  0  0  0  0
   -0.1932   -5.5957    4.3760 C   0  0  2  0  0  0  0  0  0  0  0  0
   -1.1533   -2.6756    1.0289 C   0  0  1  0  0  0  0  0  0  0  0  0
   -0.0021   -5.4540    1.3657 C   0  0  2  0  0  0  0  0  0  0  0  0
    2.3251   -2.2934   -0.7964 C   0  0  1  0  0  0  0  0  0  0  0  0
   -0.4401   -6.1860    0.0708 C   0  0  0  0  0  0  0  0  0  0  0  0
    2.0050   -2.8352   -2.2124 C   0  0  0  0  0  0  0  0  0  0  0  0
    5.4279   -1.4215   -1.3103 C   0  0  0  0  0  0  0  0  0  0  0  0
    5.7259    0.9987   -2.8820 C   0  0  0  0  0  0  0  0  0  0  0  0
    4.3742    0.7127   -2.2271 C   0  0  0  0  0  0  0  0  0  0  0  0
    7.5153    3.9963   -4.3563 C   0  0  0  0  0  0  0  0  0  0  0  0
    7.1274    4.2243   -5.8047 C   0  0  0  0  0  0  0  0  0  0  0  0
    4.1583   -0.7724   -1.8708 C   0  0  2  0  0  0  0  0  0  0  0  0
    7.1072    2.6942   -3.8810 N   0  0  0  0  0  0  0  0  0  0  0  0
    5.0032    3.2989   -3.1017 O   0  0  0  0  0  0  0  0  0  0  0  0
    7.1613    1.8185   -6.8514 O   0  0  0  0  0  0  0  0  0  0  0  0
    9.3327    3.1129   -6.6849 O   0  0  0  0  0  0  0  0  0  0  0  0
    0.1805   -5.0781    5.6484 O   0  0  0  0  0  0  0  0  0  0  0  0
   -1.9433   -1.8077    0.2165 O   0  0  0  0  0  0  0  0  0  0  0  0
    7.5492    3.8335   -8.2935 O   0  0  0  0  0  0  0  0  0  0  0  0
    7.8972    3.0688   -6.8955 S   0  0  0  0  0  0  0  0  0  0  0  0
   -0.0000    0.0000   -0.0001 H   0  0  0  0  0  0  0  0  0  0  0  0
   -0.0634   -0.8849   -1.5321 H   0  0  0  0  0  0  0  0  0  0  0  0
    2.0410   -5.1325   -0.5966 H   0  0  0  0  0  0  0  0  0  0  0  0
    2.8318   -5.2295    0.9646 H   0  0  0  0  0  0  0  0  0  0  0  0
    1.7694    0.3155   -2.2133 H   0  0  0  0  0  0  0  0  0  0  0  0
    2.0080    1.0054   -0.6064 H   0  0  0  0  0  0  0  0  0  0  0  0
    1.5467   -6.8498    4.2048 H   0  0  0  0  0  0  0  0  0  0  0  0
    1.8025   -5.2272    3.6216 H   0  0  0  0  0  0  0  0  0  0  0  0
    3.4723   -2.9199    0.9367 H   0  0  0  0  0  0  0  0  0  0  0  0
    3.9946   -3.6712   -0.5617 H   0  0  0  0  0  0  0  0  0  0  0  0
    1.6542   -6.8585    1.7417 H   0  0  0  0  0  0  0  0  0  0  0  0
    0.1043   -7.4084    2.3211 H   0  0  0  0  0  0  0  0  0  0  0  0
   -0.3715   -3.5974    3.6016 H   0  0  0  0  0  0  0  0  0  0  0  0
   -1.8811   -4.2910    4.1185 H   0  0  0  0  0  0  0  0  0  0  0  0
   -2.4838   -4.2851    0.4933 H   0  0  0  0  0  0  0  0  0  0  0  0
   -2.8770   -3.5286    2.0039 H   0  0  0  0  0  0  0  0  0  0  0  0
    1.4070   -1.5785    1.0261 H   0  0  0  0  0  0  0  0  0  0  0  0
    1.2034   -3.7592    1.9855 H   0  0  0  0  0  0  0  0  0  0  0  0
   -1.9562   -5.8335    2.2375 H   0  0  0  0  0  0  0  0  0  0  0  0
   -0.2026   -3.4630   -0.7186 H   0  0  0  0  0  0  0  0  0  0  0  0
    3.4267   -0.6677    0.1197 H   0  0  0  0  0  0  0  0  0  0  0  0
   -0.8425   -6.4627    4.5470 H   0  0  0  0  0  0  0  0  0  0  0  0
   -0.8756   -2.1144    1.9283 H   0  0  0  0  0  0  0  0  0  0  0  0
   -0.9609   -5.4832   -0.5645 H   0  0  0  0  0  0  0  0  0  0  0  0
   -1.0943   -7.0034    0.3401 H   0  0  0  0  0  0  0  0  0  0  0  0
    0.4418   -6.5611   -0.4296 H   0  0  0  0  0  0  0  0  0  0  0  0
    1.4547   -2.0798   -2.7565 H   0  0  0  0  0  0  0  0  0  0  0  0
    1.4100   -3.7328   -2.1140 H   0  0  0  0  0  0  0  0  0  0  0  0
    2.9352   -3.0566   -2.7175 H   0  0  0  0  0  0  0  0  0  0  0  0
    5.7614   -0.9296   -0.3917 H   0  0  0  0  0  0  0  0  0  0  0  0
    6.2486   -1.3482   -2.0323 H   0  0  0  0  0  0  0  0  0  0  0  0
    5.2653   -2.4821   -1.0909 H   0  0  0  0  0  0  0  0  0  0  0  0
    5.8450    0.3790   -3.7785 H   0  0  0  0  0  0  0  0  0  0  0  0
    6.5442    0.7628   -2.1929 H   0  0  0  0  0  0  0  0  0  0  0  0
    4.2673    1.3300   -1.3255 H   0  0  0  0  0  0  0  0  0  0  0  0
    3.5755    1.0287   -2.9112 H   0  0  0  0  0  0  0  0  0  0  0  0
    8.5973    4.0761   -4.2128 H   0  0  0  0  0  0  0  0  0  0  0  0
    7.0268    4.7362   -3.7150 H   0  0  0  0  0  0  0  0  0  0  0  0
    7.4497    5.2168   -6.1335 H   0  0  0  0  0  0  0  0  0  0  0  0
    6.0472    4.1360   -5.9549 H   0  0  0  0  0  0  0  0  0  0  0  0
    3.8797   -1.3119   -2.7879 H   0  0  0  0  0  0  0  0  0  0  0  0
    7.7719    1.9312   -3.9698 H   0  0  0  0  0  0  0  0  0  0  0  0
   -0.6396   -4.8052    6.0891 H   0  0  0  0  0  0  0  0  0  0  0  0
   -2.7051   -1.5460    0.7554 H   0  0  0  0  0  0  0  0  0  0  0  0
    6.5931    3.8616   -8.5336 H   0  0  0  0  0  0  0  0  0  0  0  0
  1 22  1  0  0  0  0
  1 27  1  0  0  0  0
  1 28  2  0  0  0  0
  2  4  1  0  0  0  0
  2 10  1  0  0  0  0
  2 35  1  0  0  0  0
  2 36  1  0  0  0  0
  3  6  1  0  0  0  0
  3 11  1  0  0  0  0
  3 37  1  0  0  0  0
  3 38  1  0  0  0  0
  4 14  1  0  0  0  0
  4 39  1  0  0  0  0
  4 40  1  0  0  0  0
  5  7  1  0  0  0  0
  5 15  1  0  0  0  0
  5 41  1  0  0  0  0
  5 42  1  0  0  0  0
  6 18  1  0  0  0  0
  6 43  1  0  0  0  0
  6 44  1  0  0  0  0
  7 17  1  0  0  0  0
  7 45  1  0  0  0  0
  7 46  1  0  0  0  0
  8 12  1  0  0  0  0
  8 15  1  0  0  0  0
  8 47  1  0  0  0  0
  8 48  1  0  0  0  0
  9 12  1  0  0  0  0
  9 16  1  0  0  0  0
  9 49  1  0  0  0  0
  9 50  1  0  0  0  0
 10 13  1  1  0  0  0
 10 51  1  0  0  0  0
 11 13  1  6  0  0  0
 11 52  1  0  0  0  0
 12 17  1  6  0  0  0
 12 53  1  0  0  0  0
 13 16  1  1  0  0  0
 13 54  1  0  0  0  0
 14 18  1  6  0  0  0
 14 26  1  0  0  0  0
 14 55  1  0  0  0  0
 15 31  1  0  0  0  0
 15 56  1  1  0  0  0
 16 32  1  0  0  0  0
 16 57  1  1  0  0  0
 17 11  1  6  0  0  0
 17 19  1  0  0  0  0
 18 10  1  1  0  0  0
 18 20  1  0  0  0  0
 19 58  1  0  0  0  0
 19 59  1  0  0  0  0
 19 60  1  0  0  0  0
 20 61  1  0  0  0  0
 20 62  1  0  0  0  0
 20 63  1  0  0  0  0
 21 26  1  0  0  0  0
 21 64  1  0  0  0  0
 21 65  1  0  0  0  0
 21 66  1  0  0  0  0
 22 23  1  0  0  0  0
 22 67  1  0  0  0  0
 22 68  1  0  0  0  0
 23 26  1  0  0  0  0
 23 69  1  0  0  0  0
 23 70  1  0  0  0  0
 24 25  1  0  0  0  0
 24 27  1  0  0  0  0
 24 71  1  0  0  0  0
 24 72  1  0  0  0  0
 25 34  1  0  0  0  0
 25 73  1  0  0  0  0
 25 74  1  0  0  0  0
 26 75  1  6  0  0  0
 27 76  1  0  0  0  0
 29 34  2  0  0  0  0
 30 34  2  0  0  0  0
 31 77  1  0  0  0  0
 32 78  1  0  0  0  0
 33 34  1  0  0  0  0
 33 79  1  0  0  0  0
M  END
$$$$
DrugBank_6722
 OpenBabel01151909533D

 55 58  0  0  1  0  0  0  0  0999 V2000
   -2.7106   -3.0945   -4.8446 C   0  0  0  0  0  0  0  0  0  0  0  0
   -2.6159   -3.8312   -3.6704 C   0  0  0  0  0  0  0  0  0  0  0  0
   -2.2943   -1.7663   -4.8578 C   0  0  0  0  0  0  0  0  0  0  0  0
   -2.5782    1.7353   -5.1426 C   0  0  0  0  0  0  0  0  0  0  0  0
   -0.3523    1.0315   -5.7647 C   0  0  0  0  0  0  0  0  0  0  0  0
   -2.1055   -3.2386   -2.5128 C   0  0  0  0  0  0  0  0  0  0  0  0
   -2.6498    2.5240   -6.2908 C   0  0  0  0  0  0  0  0  0  0  0  0
   -0.4239    1.8201   -6.9130 C   0  0  0  0  0  0  0  0  0  0  0  0
   -1.7808   -1.1705   -3.6933 C   0  0  0  0  0  0  0  0  0  0  0  0
   -1.4294    0.9891   -4.8794 C   0  0  0  0  0  0  0  0  0  0  0  0
   -1.3546    0.1644   -3.6785 C   0  0  0  0  0  0  0  0  0  0  0  0
   -0.8522    0.7237   -2.5124 C   0  0  0  0  0  0  0  0  0  0  0  0
   -1.6817   -1.9125   -2.4976 C   0  0  0  0  0  0  0  0  0  0  0  0
   -1.5726    2.5664   -7.1760 C   0  0  0  0  0  0  0  0  0  0  0  0
   -0.7939   -0.0807   -1.3925 C   0  0  0  0  0  0  0  0  0  0  0  0
   -0.4014    2.0934   -2.4531 C   0  0  0  0  0  0  0  0  0  0  0  0
   -1.1290    3.1786   -2.1340 C   0  0  0  0  0  0  0  0  0  0  0  0
   -0.0433    3.9291    2.9377 C   0  0  0  0  0  0  0  0  0  0  0  0
    1.2267    0.4524    0.1871 C   0  0  0  0  0  0  0  0  0  0  0  0
    0.3291   -0.4785    0.9405 C   0  0  0  0  0  0  0  0  0  0  0  0
   -0.2589    0.4596   -0.0874 C   0  0  0  0  0  0  0  0  0  0  0  0
   -0.3528    4.9275    1.8463 C   0  0  0  0  0  0  0  0  0  0  0  0
   -0.8324    5.1770   -0.6557 C   0  0  0  0  0  0  0  0  0  0  0  0
   -0.6310    4.6047   -2.0701 C   0  0  2  0  0  0  0  0  0  0  0  0
   -0.1119    4.3757    0.4395 C   0  0  1  0  0  0  0  0  0  0  0  0
   -1.1946   -1.3724   -1.3645 N   0  0  0  0  0  0  0  0  0  0  0  0
    0.2839    2.7679    2.7278 O   0  0  0  0  0  0  0  0  0  0  0  0
   -0.1880    4.4467    4.1826 O   0  0  0  0  0  0  0  0  0  0  0  0
   -1.3005    5.4242   -3.0230 O   0  0  0  0  0  0  0  0  0  0  0  0
    1.2858    4.3559    0.1604 O   0  0  0  0  0  0  0  0  0  0  0  0
   -1.6414    3.3237   -8.2787 F   0  0  0  0  0  0  0  0  0  0  0  0
   -3.1073   -3.5519   -5.7458 H   0  0  0  0  0  0  0  0  0  0  0  0
   -2.9373   -4.8685   -3.6528 H   0  0  0  0  0  0  0  0  0  0  0  0
   -2.3839   -1.2208   -5.7938 H   0  0  0  0  0  0  0  0  0  0  0  0
   -3.4262    1.7129   -4.4622 H   0  0  0  0  0  0  0  0  0  0  0  0
    0.5500    0.4555   -5.5737 H   0  0  0  0  0  0  0  0  0  0  0  0
   -2.0412   -3.8373   -1.6061 H   0  0  0  0  0  0  0  0  0  0  0  0
   -3.5440    3.1052   -6.4959 H   0  0  0  0  0  0  0  0  0  0  0  0
    0.4143    1.8536   -7.6027 H   0  0  0  0  0  0  0  0  0  0  0  0
    0.6504    2.2505   -2.6863 H   0  0  0  0  0  0  0  0  0  0  0  0
   -2.1794    3.0667   -1.8755 H   0  0  0  0  0  0  0  0  0  0  0  0
    1.6339    1.3025    0.7198 H   0  0  0  0  0  0  0  0  0  0  0  0
    1.8973    0.0209   -0.5453 H   0  0  0  0  0  0  0  0  0  0  0  0
    0.3957   -1.5352    0.7149 H   0  0  0  0  0  0  0  0  0  0  0  0
    0.1302   -0.2556    1.9812 H   0  0  0  0  0  0  0  0  0  0  0  0
   -0.8142    1.3103    0.3042 H   0  0  0  0  0  0  0  0  0  0  0  0
   -1.3818    5.2889    1.9517 H   0  0  0  0  0  0  0  0  0  0  0  0
    0.2941    5.7949    2.0285 H   0  0  0  0  0  0  0  0  0  0  0  0
   -0.4662    6.2116   -0.6265 H   0  0  0  0  0  0  0  0  0  0  0  0
   -1.9089    5.1954   -0.4435 H   0  0  0  0  0  0  0  0  0  0  0  0
    0.4336    4.5935   -2.3318 H   0  0  0  0  0  0  0  0  0  0  0  0
   -0.4605    3.3370    0.4234 H   0  0  0  0  0  0  0  0  0  0  0  0
   -0.4540    5.3902    4.2191 H   0  0  0  0  0  0  0  0  0  0  0  0
   -0.9343    6.3173   -2.9267 H   0  0  0  0  0  0  0  0  0  0  0  0
    1.6925    3.7828    0.8285 H   0  0  0  0  0  0  0  0  0  0  0  0
  1  2  2  0  0  0  0
  1  3  1  0  0  0  0
  1 32  1  0  0  0  0
  2  6  1  0  0  0  0
  2 33  1  0  0  0  0
  3  9  2  0  0  0  0
  3 34  1  0  0  0  0
  4  7  2  0  0  0  0
  4 10  1  0  0  0  0
  4 35  1  0  0  0  0
  5  8  1  0  0  0  0
  5 10  2  0  0  0  0
  5 36  1  0  0  0  0
  6 13  2  0  0  0  0
  6 37  1  0  0  0  0
  7 14  1  0  0  0  0
  7 38  1  0  0  0  0
  8 14  2  0  0  0  0
  8 39  1  0  0  0  0
  9 11  1  0  0  0  0
  9 13  1  0  0  0  0
 10 11  1  0  0  0  0
 11 12  2  0  0  0  0
 12 15  1  0  0  0  0
 12 16  1  0  0  0  0
 13 26  1  0  0  0  0
 14 31  1  0  0  0  0
 15 21  1  0  0  0  0
 15 26  2  0  0  0  0
 16 17  2  0  0  0  0
 16 40  1  0  0  0  0
 17 24  1  0  0  0  0
 17 41  1  0  0  0  0
 18 22  1  0  0  0  0
 18 27  2  0  0  0  0
 18 28  1  0  0  0  0
 19 20  1  0  0  0  0
 19 21  1  0  0  0  0
 19 42  1  0  0  0  0
 19 43  1  0  0  0  0
 20 21  1  0  0  0  0
 20 44  1  0  0  0  0
 20 45  1  0  0  0  0
 21 46  1  0  0  0  0
 22 25  1  0  0  0  0
 22 47  1  0  0  0  0
 22 48  1  0  0  0  0
 23 24  1  0  0  0  0
 23 25  1  0  0  0  0
 23 49  1  0  0  0  0
 23 50  1  0  0  0  0
 24 29  1  0  0  0  0
 24 51  1  6  0  0  0
 25 30  1  0  0  0  0
 25 52  1  6  0  0  0
 28 53  1  0  0  0  0
 29 54  1  0  0  0  0
 30 55  1  0  0  0  0
M  END
$$$$
DrugBank_6731
 OpenBabel01151909533D

 61 65  0  0  0  0  0  0  0  0999 V2000
    1.2085    5.8078   -3.0724 C   0  0  0  0  0  0  0  0  0  0  0  0
    1.4679    5.3570   -0.7130 C   0  0  0  0  0  0  0  0  0  0  0  0
    6.2042   10.1288   -0.6119 C   0  0  0  0  0  0  0  0  0  0  0  0
    6.7436    9.6297   -2.9135 C   0  0  0  0  0  0  0  0  0  0  0  0
   -0.1782    5.7888   -2.9236 C   0  0  0  0  0  0  0  0  0  0  0  0
    0.0811    5.3381   -0.5642 C   0  0  0  0  0  0  0  0  0  0  0  0
    6.4724   11.4782   -0.8417 C   0  0  0  0  0  0  0  0  0  0  0  0
    7.0118   10.9791   -3.1432 C   0  0  0  0  0  0  0  0  0  0  0  0
   -2.4161    7.5721   -0.3645 C   0  0  0  0  0  0  0  0  0  0  0  0
   -3.6595    4.1708    0.4515 C   0  0  0  0  0  0  0  0  0  0  0  0
   -4.6751    5.6664    2.5571 C   0  0  0  0  0  0  0  0  0  0  0  0
   -2.9587    8.2377    0.7159 C   0  0  0  0  0  0  0  0  0  0  0  0
   -3.4073    5.5516    0.5186 C   0  0  0  0  0  0  0  0  0  0  0  0
   -3.9201    6.3184    1.5859 C   0  0  0  0  0  0  0  0  0  0  0  0
    2.0316    5.5918   -1.9671 C   0  0  0  0  0  0  0  0  0  0  0  0
    6.3399    9.2045   -1.6478 C   0  0  0  0  0  0  0  0  0  0  0  0
   -0.7420    5.5540   -1.6695 C   0  0  0  0  0  0  0  0  0  0  0  0
   -2.6474    6.2074   -0.4593 C   0  0  0  0  0  0  0  0  0  0  0  0
   -4.4177    3.5446    1.4366 C   0  0  0  0  0  0  0  0  0  0  0  0
   -4.9260    4.2937    2.4905 C   0  0  0  0  0  0  0  0  0  0  0  0
    6.8762   11.9034   -2.1073 C   0  0  0  0  0  0  0  0  0  0  0  0
    4.3971    5.4158   -1.1318 C   0  0  0  0  0  0  0  0  0  0  0  0
    6.1527    6.7900   -2.3256 C   0  0  0  0  0  0  0  0  0  0  0  0
    6.3526    4.2459   -2.2815 C   0  0  0  0  0  0  0  0  0  0  0  0
    6.8549    4.7479   -0.9649 C   0  0  0  0  0  0  0  0  0  0  0  0
    5.7902    5.5150   -1.7009 C   0  0  0  0  0  0  0  0  0  0  0  0
   -3.7087    1.3426    1.9883 C   0  0  0  0  0  0  0  0  0  0  0  0
   -7.0809    3.6462    3.2605 C   0  0  0  0  0  0  0  0  0  0  0  0
   -3.6973    7.6429    1.6806 N   0  0  0  0  0  0  0  0  0  0  0  0
    3.4187    5.6107   -2.1158 N   0  0  0  0  0  0  0  0  0  0  0  0
    6.0681    7.8354   -1.4149 N   0  0  0  0  0  0  0  0  0  0  0  0
    4.2205    5.1858    0.0602 O   0  0  0  0  0  0  0  0  0  0  0  0
    6.4807    6.8400   -3.5066 O   0  0  0  0  0  0  0  0  0  0  0  0
   -2.1171    5.5352   -1.5219 O   0  0  0  0  0  0  0  0  0  0  0  0
   -4.6527    2.2061    1.3569 O   0  0  0  0  0  0  0  0  0  0  0  0
   -5.6707    3.7022    3.4660 O   0  0  0  0  0  0  0  0  0  0  0  0
    7.1327   13.1994   -2.3284 F   0  0  0  0  0  0  0  0  0  0  0  0
    1.6370    5.9918   -4.0544 H   0  0  0  0  0  0  0  0  0  0  0  0
    2.0994    5.1874    0.1553 H   0  0  0  0  0  0  0  0  0  0  0  0
    5.8906    9.8089    0.3786 H   0  0  0  0  0  0  0  0  0  0  0  0
    6.8550    8.9180   -3.7275 H   0  0  0  0  0  0  0  0  0  0  0  0
   -0.8142    5.9577   -3.7884 H   0  0  0  0  0  0  0  0  0  0  0  0
   -0.3521    5.1546    0.4153 H   0  0  0  0  0  0  0  0  0  0  0  0
    6.3677   12.1978   -0.0353 H   0  0  0  0  0  0  0  0  0  0  0  0
    7.3249   11.3107   -4.1288 H   0  0  0  0  0  0  0  0  0  0  0  0
   -1.8319    8.1019   -1.1084 H   0  0  0  0  0  0  0  0  0  0  0  0
   -3.2679    3.5715   -0.3679 H   0  0  0  0  0  0  0  0  0  0  0  0
   -5.0824    6.2373    3.3904 H   0  0  0  0  0  0  0  0  0  0  0  0
   -2.8115    9.3053    0.8421 H   0  0  0  0  0  0  0  0  0  0  0  0
    7.0123    4.3312   -3.1373 H   0  0  0  0  0  0  0  0  0  0  0  0
    5.7510    3.3443   -2.2798 H   0  0  0  0  0  0  0  0  0  0  0  0
    6.5915    4.1836   -0.0778 H   0  0  0  0  0  0  0  0  0  0  0  0
    7.8526    5.1707   -0.9353 H   0  0  0  0  0  0  0  0  0  0  0  0
   -4.0149    0.3029    1.8493 H   0  0  0  0  0  0  0  0  0  0  0  0
   -3.6541    1.5781    3.0541 H   0  0  0  0  0  0  0  0  0  0  0  0
   -2.7274    1.4950    1.5328 H   0  0  0  0  0  0  0  0  0  0  0  0
   -7.5545    3.1505    4.1115 H   0  0  0  0  0  0  0  0  0  0  0  0
   -7.2944    3.0969    2.3401 H   0  0  0  0  0  0  0  0  0  0  0  0
   -7.4681    4.6641    3.1731 H   0  0  0  0  0  0  0  0  0  0  0  0
    3.7732    5.7885   -3.0627 H   0  0  0  0  0  0  0  0  0  0  0  0
    5.7790    7.6036   -0.4668 H   0  0  0  0  0  0  0  0  0  0  0  0
  1  5  2  0  0  0  0
  1 15  1  0  0  0  0
  1 38  1  0  0  0  0
  2  6  1  0  0  0  0
  2 15  2  0  0  0  0
  2 39  1  0  0  0  0
  3  7  2  0  0  0  0
  3 16  1  0  0  0  0
  3 40  1  0  0  0  0
  4  8  1  0  0  0  0
  4 16  2  0  0  0  0
  4 41  1  0  0  0  0
  5 17  1  0  0  0  0
  5 42  1  0  0  0  0
  6 17  2  0  0  0  0
  6 43  1  0  0  0  0
  7 21  1  0  0  0  0
  7 44  1  0  0  0  0
  8 21  2  0  0  0  0
  8 45  1  0  0  0  0
  9 12  2  0  0  0  0
  9 18  1  0  0  0  0
  9 46  1  0  0  0  0
 10 13  1  0  0  0  0
 10 19  2  0  0  0  0
 10 47  1  0  0  0  0
 11 14  1  0  0  0  0
 11 20  2  0  0  0  0
 11 48  1  0  0  0  0
 12 29  1  0  0  0  0
 12 49  1  0  0  0  0
 13 14  1  0  0  0  0
 13 18  2  0  0  0  0
 14 29  2  0  0  0  0
 15 30  1  0  0  0  0
 16 31  1  0  0  0  0
 17 34  1  0  0  0  0
 18 34  1  0  0  0  0
 19 20  1  0  0  0  0
 19 35  1  0  0  0  0
 20 36  1  0  0  0  0
 21 37  1  0  0  0  0
 22 26  1  0  0  0  0
 22 30  1  0  0  0  0
 22 32  2  0  0  0  0
 23 26  1  0  0  0  0
 23 31  1  0  0  0  0
 23 33  2  0  0  0  0
 24 25  1  0  0  0  0
 24 26  1  0  0  0  0
 24 50  1  0  0  0  0
 24 51  1  0  0  0  0
 25 26  1  0  0  0  0
 25 52  1  0  0  0  0
 25 53  1  0  0  0  0
 27 35  1  0  0  0  0
 27 54  1  0  0  0  0
 27 55  1  0  0  0  0
 27 56  1  0  0  0  0
 28 36  1  0  0  0  0
 28 57  1  0  0  0  0
 28 58  1  0  0  0  0
 28 59  1  0  0  0  0
 30 60  1  0  0  0  0
 31 61  1  0  0  0  0
M  END
$$$$
DrugBank_6739
 OpenBabel01151909533D

109112  0  0  1  0  0  0  0  0999 V2000
    4.4718   -3.0112   -9.8463 C   0  0  0  0  0  0  0  0  0  0  0  0
    7.6785   -6.6958   -7.6663 C   0  0  0  0  0  0  0  0  0  0  0  0
    4.0347   -4.2656   -9.4210 C   0  0  0  0  0  0  0  0  0  0  0  0
    5.2356   -2.2131   -8.9946 C   0  0  0  0  0  0  0  0  0  0  0  0
    6.9361   -7.1013   -8.7754 C   0  0  0  0  0  0  0  0  0  0  0  0
    7.7087   -7.4892   -6.5194 C   0  0  0  0  0  0  0  0  0  0  0  0
    4.3612   -4.7220   -8.1440 C   0  0  0  0  0  0  0  0  0  0  0  0
    5.5622   -2.6695   -7.7176 C   0  0  0  0  0  0  0  0  0  0  0  0
    6.2239   -8.3000   -8.7376 C   0  0  0  0  0  0  0  0  0  0  0  0
    6.9965   -8.6879   -6.4815 C   0  0  0  0  0  0  0  0  0  0  0  0
    5.1250   -3.9239   -7.2923 C   0  0  0  0  0  0  0  0  0  0  0  0
    6.2541   -9.0933   -7.5906 C   0  0  0  0  0  0  0  0  0  0  0  0
    2.3472  -13.7066   -9.5195 C   0  0  0  0  0  0  0  0  0  0  0  0
    5.8894   -2.7378   -2.1874 C   0  0  0  0  0  0  0  0  0  0  0  0
    3.3360  -11.5580   -6.9797 C   0  0  0  0  0  0  0  0  0  0  0  0
    4.8170   -6.0369   -3.3918 C   0  0  0  0  0  0  0  0  0  0  0  0
    3.3675   -8.4834   -5.3689 C   0  0  0  0  0  0  0  0  0  0  0  0
    8.1128   -1.2311   -3.6731 C   0  0  0  0  0  0  0  0  0  0  0  0
    8.7137   -0.4530   -1.4749 C   0  0  0  0  0  0  0  0  0  0  0  0
    8.5197    0.1283   -4.2345 C   0  0  0  0  0  0  0  0  0  0  0  0
    9.1053    0.8884   -2.0879 C   0  0  0  0  0  0  0  0  0  0  0  0
    1.9467  -16.1066   -8.7257 C   0  0  0  0  0  0  0  0  0  0  0  0
    2.8975  -15.0870   -9.2674 C   0  0  2  0  0  0  0  0  0  0  0  0
    4.3583  -15.2382   -9.0943 C   0  0  0  0  0  0  0  0  0  0  0  0
   -0.3526  -12.7190   -6.0683 C   0  0  0  0  0  0  0  0  0  0  0  0
   -1.7752  -11.4411   -7.6810 C   0  0  0  0  0  0  0  0  0  0  0  0
    3.6826   -8.8625   -0.9453 C   0  0  0  0  0  0  0  0  0  0  0  0
    1.1856   -8.7721   -0.8136 C   0  0  0  0  0  0  0  0  0  0  0  0
    5.4782   -4.4167   -5.9111 C   0  0  0  0  0  0  0  0  0  0  0  0
    5.4835  -10.3903   -7.5489 C   0  0  0  0  0  0  0  0  0  0  0  0
    7.2759   -2.3747   -1.7205 C   0  0  0  0  0  0  0  0  0  0  0  0
    4.4161   -4.0092   -4.8806 C   0  0  0  0  0  0  0  0  0  0  0  0
    0.3098  -12.5589   -8.5314 C   0  0  0  0  0  0  0  0  0  0  0  0
    2.3650   -8.6341   -3.0730 C   0  0  0  0  0  0  0  0  0  0  0  0
    1.7739  -12.9686   -8.3170 C   0  0  2  0  0  0  0  0  0  0  0  0
    4.0525  -10.2132   -7.0283 C   0  0  2  0  0  0  0  0  0  0  0  0
    4.6968   -4.5177   -3.4616 C   0  0  2  0  0  0  0  0  0  0  0  0
    3.5473   -8.1130   -3.9000 C   0  0  2  0  0  0  0  0  0  0  0  0
   -0.3424  -11.8487   -7.3257 C   0  0  0  0  0  0  0  0  0  0  0  0
    2.4159   -8.2751   -1.5739 C   0  0  0  0  0  0  0  0  0  0  0  0
    7.6597   -1.0816   -2.2832 N   0  0  0  0  0  0  0  0  0  0  0  0
    2.5889  -11.7904   -8.1262 N   0  0  0  0  0  0  0  0  0  0  0  0
    5.8863   -3.9314   -2.9005 N   0  0  0  0  0  0  0  0  0  0  0  0
    4.0220   -9.6640   -5.6919 N   0  0  0  0  0  0  0  0  0  0  0  0
    3.6674   -6.6795   -3.8360 N   0  0  0  0  0  0  0  0  0  0  0  0
    2.3373  -13.2253  -10.6527 O   0  0  0  0  0  0  0  0  0  0  0  0
    4.8969   -2.0529   -1.9546 O   0  0  0  0  0  0  0  0  0  0  0  0
    3.3921  -12.3115   -6.0102 O   0  0  0  0  0  0  0  0  0  0  0  0
    5.8364   -6.6101   -3.0127 O   0  0  0  0  0  0  0  0  0  0  0  0
    2.7494   -7.7802   -6.1655 O   0  0  0  0  0  0  0  0  0  0  0  0
    9.5493    0.7095   -3.4334 O   0  0  0  0  0  0  0  0  0  0  0  0
    2.2868  -16.0521  -10.1159 O   0  0  0  0  0  0  0  0  0  0  0  0
    4.2186   -2.6566  -10.8412 H   0  0  0  0  0  0  0  0  0  0  0  0
    8.2341   -5.7631   -7.6964 H   0  0  0  0  0  0  0  0  0  0  0  0
    3.4409   -4.8876  -10.0845 H   0  0  0  0  0  0  0  0  0  0  0  0
    5.5771   -1.2369   -9.3257 H   0  0  0  0  0  0  0  0  0  0  0  0
    6.9134   -6.4843   -9.6689 H   0  0  0  0  0  0  0  0  0  0  0  0
    8.2874   -7.1743   -5.6561 H   0  0  0  0  0  0  0  0  0  0  0  0
    4.0160   -5.7007   -7.8211 H   0  0  0  0  0  0  0  0  0  0  0  0
    6.1576   -2.0408   -7.0608 H   0  0  0  0  0  0  0  0  0  0  0  0
    5.6481   -8.6079   -9.6064 H   0  0  0  0  0  0  0  0  0  0  0  0
    7.0257   -9.2995   -5.5836 H   0  0  0  0  0  0  0  0  0  0  0  0
    7.3095   -1.6475   -4.2933 H   0  0  0  0  0  0  0  0  0  0  0  0
    8.9691   -1.9179   -3.7231 H   0  0  0  0  0  0  0  0  0  0  0  0
    9.5971   -1.1046   -1.4261 H   0  0  0  0  0  0  0  0  0  0  0  0
    8.3600   -0.2860   -0.4500 H   0  0  0  0  0  0  0  0  0  0  0  0
    8.9141    0.0088   -5.2488 H   0  0  0  0  0  0  0  0  0  0  0  0
    7.6663    0.8149   -4.2887 H   0  0  0  0  0  0  0  0  0  0  0  0
    8.2720    1.6016   -2.0694 H   0  0  0  0  0  0  0  0  0  0  0  0
    9.9312    1.3304   -1.5215 H   0  0  0  0  0  0  0  0  0  0  0  0
    2.3580  -16.9191   -8.1402 H   0  0  0  0  0  0  0  0  0  0  0  0
    0.9418  -15.8170   -8.4449 H   0  0  0  0  0  0  0  0  0  0  0  0
    4.6509  -16.2898   -8.9154 H   0  0  0  0  0  0  0  0  0  0  0  0
    4.7399  -14.6532   -8.2366 H   0  0  0  0  0  0  0  0  0  0  0  0
    4.9215  -14.8998   -9.9842 H   0  0  0  0  0  0  0  0  0  0  0  0
   -0.8995  -13.6529   -6.2361 H   0  0  0  0  0  0  0  0  0  0  0  0
    0.6629  -12.9698   -5.7480 H   0  0  0  0  0  0  0  0  0  0  0  0
   -0.8319  -12.1926   -5.2358 H   0  0  0  0  0  0  0  0  0  0  0  0
   -2.3839  -12.3211   -7.9150 H   0  0  0  0  0  0  0  0  0  0  0  0
   -1.7952  -10.7745   -8.5500 H   0  0  0  0  0  0  0  0  0  0  0  0
   -2.2514  -10.9211   -6.8429 H   0  0  0  0  0  0  0  0  0  0  0  0
    3.6853   -9.9549   -1.0232 H   0  0  0  0  0  0  0  0  0  0  0  0
    3.7451   -8.6050    0.1173 H   0  0  0  0  0  0  0  0  0  0  0  0
    4.5843   -8.4852   -1.4397 H   0  0  0  0  0  0  0  0  0  0  0  0
    1.0851   -9.8601   -0.8889 H   0  0  0  0  0  0  0  0  0  0  0  0
    1.2546   -8.5123    0.2483 H   0  0  0  0  0  0  0  0  0  0  0  0
    0.2683   -8.3163   -1.1978 H   0  0  0  0  0  0  0  0  0  0  0  0
    6.4611   -4.0195   -5.6296 H   0  0  0  0  0  0  0  0  0  0  0  0
    5.5901   -5.5075   -5.9400 H   0  0  0  0  0  0  0  0  0  0  0  0
    5.4710  -10.8449   -8.5489 H   0  0  0  0  0  0  0  0  0  0  0  0
    6.0364  -11.0986   -6.9177 H   0  0  0  0  0  0  0  0  0  0  0  0
    7.2922   -2.3114   -0.6285 H   0  0  0  0  0  0  0  0  0  0  0  0
    7.9894   -3.1357   -2.0499 H   0  0  0  0  0  0  0  0  0  0  0  0
    4.3425   -2.9137   -4.8549 H   0  0  0  0  0  0  0  0  0  0  0  0
    3.4350   -4.3745   -5.2107 H   0  0  0  0  0  0  0  0  0  0  0  0
    0.2393  -11.8953   -9.4044 H   0  0  0  0  0  0  0  0  0  0  0  0
   -0.2796  -13.4530   -8.7775 H   0  0  0  0  0  0  0  0  0  0  0  0
    2.3185   -9.7278   -3.1712 H   0  0  0  0  0  0  0  0  0  0  0  0
    1.4270   -8.2559   -3.5008 H   0  0  0  0  0  0  0  0  0  0  0  0
    1.8631  -13.5981   -7.4269 H   0  0  0  0  0  0  0  0  0  0  0  0
    3.4811   -9.5249   -7.6621 H   0  0  0  0  0  0  0  0  0  0  0  0
    3.8737   -4.2125   -2.8039 H   0  0  0  0  0  0  0  0  0  0  0  0
    4.4958   -8.5292   -3.5457 H   0  0  0  0  0  0  0  0  0  0  0  0
    0.2154  -10.9312   -7.1025 H   0  0  0  0  0  0  0  0  0  0  0  0
    2.4692   -7.1848   -1.4666 H   0  0  0  0  0  0  0  0  0  0  0  0
    2.6163  -11.0975   -8.8684 H   0  0  0  0  0  0  0  0  0  0  0  0
    6.7718   -4.4166   -3.0329 H   0  0  0  0  0  0  0  0  0  0  0  0
    4.5165  -10.1729   -4.9652 H   0  0  0  0  0  0  0  0  0  0  0  0
    2.8753   -6.1116   -4.1290 H   0  0  0  0  0  0  0  0  0  0  0  0
  1  3  2  0  0  0  0
  1  4  1  0  0  0  0
  1 53  1  0  0  0  0
  2  5  2  0  0  0  0
  2  6  1  0  0  0  0
  2 54  1  0  0  0  0
  3  7  1  0  0  0  0
  3 55  1  0  0  0  0
  4  8  2  0  0  0  0
  4 56  1  0  0  0  0
  5  9  1  0  0  0  0
  5 57  1  0  0  0  0
  6 10  2  0  0  0  0
  6 58  1  0  0  0  0
  7 11  2  0  0  0  0
  7 59  1  0  0  0  0
  8 11  1  0  0  0  0
  8 60  1  0  0  0  0
  9 12  2  0  0  0  0
  9 61  1  0  0  0  0
 10 12  1  0  0  0  0
 10 62  1  0  0  0  0
 11 29  1  0  0  0  0
 12 30  1  0  0  0  0
 13 35  1  0  0  0  0
 13 46  2  0  0  0  0
 14 31  1  0  0  0  0
 14 43  1  0  0  0  0
 14 47  2  0  0  0  0
 15 36  1  0  0  0  0
 15 42  1  0  0  0  0
 15 48  2  0  0  0  0
 16 37  1  0  0  0  0
 16 45  1  0  0  0  0
 16 49  2  0  0  0  0
 17 38  1  0  0  0  0
 17 44  1  0  0  0  0
 17 50  2  0  0  0  0
 18 20  1  0  0  0  0
 18 41  1  0  0  0  0
 18 63  1  0  0  0  0
 18 64  1  0  0  0  0
 19 21  1  0  0  0  0
 19 41  1  0  0  0  0
 19 65  1  0  0  0  0
 19 66  1  0  0  0  0
 20 51  1  0  0  0  0
 20 67  1  0  0  0  0
 20 68  1  0  0  0  0
 21 51  1  0  0  0  0
 21 69  1  0  0  0  0
 21 70  1  0  0  0  0
 22 23  1  0  0  0  0
 22 52  1  0  0  0  0
 22 71  1  0  0  0  0
 22 72  1  0  0  0  0
 23 13  1  6  0  0  0
 23 24  1  0  0  0  0
 23 52  1  0  0  0  0
 24 73  1  0  0  0  0
 24 74  1  0  0  0  0
 24 75  1  0  0  0  0
 25 39  1  0  0  0  0
 25 76  1  0  0  0  0
 25 77  1  0  0  0  0
 25 78  1  0  0  0  0
 26 39  1  0  0  0  0
 26 79  1  0  0  0  0
 26 80  1  0  0  0  0
 26 81  1  0  0  0  0
 27 40  1  0  0  0  0
 27 82  1  0  0  0  0
 27 83  1  0  0  0  0
 27 84  1  0  0  0  0
 28 40  1  0  0  0  0
 28 85  1  0  0  0  0
 28 86  1  0  0  0  0
 28 87  1  0  0  0  0
 29 32  1  0  0  0  0
 29 88  1  0  0  0  0
 29 89  1  0  0  0  0
 30 36  1  0  0  0  0
 30 90  1  0  0  0  0
 30 91  1  0  0  0  0
 31 41  1  0  0  0  0
 31 92  1  0  0  0  0
 31 93  1  0  0  0  0
 32 37  1  0  0  0  0
 32 94  1  0  0  0  0
 32 95  1  0  0  0  0
 33 35  1  0  0  0  0
 33 39  1  0  0  0  0
 33 96  1  0  0  0  0
 33 97  1  0  0  0  0
 34 38  1  0  0  0  0
 34 40  1  0  0  0  0
 34 98  1  0  0  0  0
 34 99  1  0  0  0  0
 35 42  1  0  0  0  0
 35100  1  1  0  0  0
 36 44  1  0  0  0  0
 36101  1  6  0  0  0
 37 43  1  0  0  0  0
 37102  1  1  0  0  0
 38 45  1  0  0  0  0
 38103  1  1  0  0  0
 39104  1  0  0  0  0
 40105  1  0  0  0  0
 42106  1  0  0  0  0
 43107  1  0  0  0  0
 44108  1  0  0  0  0
 45109  1  0  0  0  0
M  END
$$$$
DrugBank_1788
 OpenBabel01151909533D

 53 52  0  0  0  0  0  0  0  0999 V2000
   -8.3660    4.5506   -3.9534 C   0  0  0  0  0  0  0  0  0  0  0  0
   -6.8924    4.8751   -3.7588 C   0  0  0  0  0  0  0  0  0  0  0  0
   -6.0934    4.6247   -5.0385 C   0  0  0  0  0  0  0  0  0  0  0  0
   -4.6142    5.0068   -4.9207 C   0  0  0  0  0  0  0  0  0  0  0  0
   -3.8121    4.7274   -6.1945 C   0  0  0  0  0  0  0  0  0  0  0  0
   -2.3190    5.0425   -6.0535 C   0  0  0  0  0  0  0  0  0  0  0  0
   -1.5169    4.7848   -7.3320 C   0  0  0  0  0  0  0  0  0  0  0  0
   -0.0326    5.0961   -7.1231 C   0  0  0  0  0  0  0  0  0  0  0  0
    0.8243    4.8482   -8.3686 C   0  0  0  0  0  0  0  0  0  0  0  0
    2.3109    5.1953   -8.2344 C   0  0  0  0  0  0  0  0  0  0  0  0
    3.1297    4.8437   -9.4789 C   0  0  0  0  0  0  0  0  0  0  0  0
    4.6258    5.1378   -9.3213 C   0  0  0  0  0  0  0  0  0  0  0  0
    5.4398    4.8099  -10.5759 C   0  0  0  0  0  0  0  0  0  0  0  0
    6.9438    5.0473  -10.3999 C   0  0  0  0  0  0  0  0  0  0  0  0
    7.7668    4.6464  -11.6280 C   0  0  0  0  0  0  0  0  0  0  0  0
    9.2589    4.8918  -11.4453 C   0  0  0  0  0  0  0  0  0  0  0  0
   10.0131    2.9765  -13.0655 O   0  0  0  0  0  0  0  0  0  0  0  0
   10.0227    5.3659  -13.9058 O   0  0  0  0  0  0  0  0  0  0  0  0
   11.7332    4.5433  -12.4081 F   0  0  0  0  0  0  0  0  0  0  0  0
   10.2127    4.3961  -12.8439 S   0  0  0  0  0  0  0  0  0  0  0  0
   -8.7945    5.1462   -4.7658 H   0  0  0  0  0  0  0  0  0  0  0  0
   -8.9364    4.7518   -3.0409 H   0  0  0  0  0  0  0  0  0  0  0  0
   -8.4909    3.4927   -4.2050 H   0  0  0  0  0  0  0  0  0  0  0  0
   -6.5052    4.2595   -2.9401 H   0  0  0  0  0  0  0  0  0  0  0  0
   -6.7925    5.9236   -3.4555 H   0  0  0  0  0  0  0  0  0  0  0  0
   -6.1794    3.5708   -5.3299 H   0  0  0  0  0  0  0  0  0  0  0  0
   -6.5328    5.2136   -5.8535 H   0  0  0  0  0  0  0  0  0  0  0  0
   -4.5676    6.0759   -4.6856 H   0  0  0  0  0  0  0  0  0  0  0  0
   -4.1634    4.4756   -4.0738 H   0  0  0  0  0  0  0  0  0  0  0  0
   -4.2314    5.2997   -7.0307 H   0  0  0  0  0  0  0  0  0  0  0  0
   -3.9019    3.6679   -6.4587 H   0  0  0  0  0  0  0  0  0  0  0  0
   -1.9143    4.4172   -5.2477 H   0  0  0  0  0  0  0  0  0  0  0  0
   -2.1912    6.0852   -5.7382 H   0  0  0  0  0  0  0  0  0  0  0  0
   -1.9005    5.4055   -8.1489 H   0  0  0  0  0  0  0  0  0  0  0  0
   -1.6424    3.7373   -7.6278 H   0  0  0  0  0  0  0  0  0  0  0  0
    0.0758    6.1515   -6.8425 H   0  0  0  0  0  0  0  0  0  0  0  0
    0.3548    4.5135   -6.2794 H   0  0  0  0  0  0  0  0  0  0  0  0
    0.7403    3.7916   -8.6520 H   0  0  0  0  0  0  0  0  0  0  0  0
    0.3995    5.4236   -9.2006 H   0  0  0  0  0  0  0  0  0  0  0  0
    2.4183    6.2588   -7.9962 H   0  0  0  0  0  0  0  0  0  0  0  0
    2.7113    4.6444   -7.3741 H   0  0  0  0  0  0  0  0  0  0  0  0
    2.7485    5.3894  -10.3496 H   0  0  0  0  0  0  0  0  0  0  0  0
    3.0115    3.7751   -9.6964 H   0  0  0  0  0  0  0  0  0  0  0  0
    5.0043    4.5429   -8.4810 H   0  0  0  0  0  0  0  0  0  0  0  0
    4.7574    6.1913   -9.0499 H   0  0  0  0  0  0  0  0  0  0  0  0
    5.0806    5.4025  -11.4250 H   0  0  0  0  0  0  0  0  0  0  0  0
    5.2887    3.7553  -10.8377 H   0  0  0  0  0  0  0  0  0  0  0  0
    7.1148    6.1021  -10.1569 H   0  0  0  0  0  0  0  0  0  0  0  0
    7.2822    4.4640   -9.5346 H   0  0  0  0  0  0  0  0  0  0  0  0
    7.6152    3.5779  -11.8236 H   0  0  0  0  0  0  0  0  0  0  0  0
    7.4137    5.1899  -12.5114 H   0  0  0  0  0  0  0  0  0  0  0  0
    9.4770    5.9469  -11.2564 H   0  0  0  0  0  0  0  0  0  0  0  0
    9.6332    4.3055  -10.6002 H   0  0  0  0  0  0  0  0  0  0  0  0
  1  2  1  0  0  0  0
  1 21  1  0  0  0  0
  1 22  1  0  0  0  0
  1 23  1  0  0  0  0
  2  3  1  0  0  0  0
  2 24  1  0  0  0  0
  2 25  1  0  0  0  0
  3  4  1  0  0  0  0
  3 26  1  0  0  0  0
  3 27  1  0  0  0  0
  4  5  1  0  0  0  0
  4 28  1  0  0  0  0
  4 29  1  0  0  0  0
  5  6  1  0  0  0  0
  5 30  1  0  0  0  0
  5 31  1  0  0  0  0
  6  7  1  0  0  0  0
  6 32  1  0  0  0  0
  6 33  1  0  0  0  0
  7  8  1  0  0  0  0
  7 34  1  0  0  0  0
  7 35  1  0  0  0  0
  8  9  1  0  0  0  0
  8 36  1  0  0  0  0
  8 37  1  0  0  0  0
  9 10  1  0  0  0  0
  9 38  1  0  0  0  0
  9 39  1  0  0  0  0
 10 11  1  0  0  0  0
 10 40  1  0  0  0  0
 10 41  1  0  0  0  0
 11 12  1  0  0  0  0
 11 42  1  0  0  0  0
 11 43  1  0  0  0  0
 12 13  1  0  0  0  0
 12 44  1  0  0  0  0
 12 45  1  0  0  0  0
 13 14  1  0  0  0  0
 13 46  1  0  0  0  0
 13 47  1  0  0  0  0
 14 15  1  0  0  0  0
 14 48  1  0  0  0  0
 14 49  1  0  0  0  0
 15 16  1  0  0  0  0
 15 50  1  0  0  0  0
 15 51  1  0  0  0  0
 16 20  1  0  0  0  0
 16 52  1  0  0  0  0
 16 53  1  0  0  0  0
 17 20  2  0  0  0  0
 18 20  2  0  0  0  0
 19 20  1  0  0  0  0
M  END
$$$$
DrugBank_1791
 OpenBabel01151909533D

 38 39  0  0  1  0  0  0  0  0999 V2000
    0.5610   -2.4967   -2.7550 C   0  0  0  0  0  0  0  0  0  0  0  0
   -0.5227   -1.6473   -2.6009 C   0  0  0  0  0  0  0  0  0  0  0  0
   -1.0726   -1.5177   -1.3304 C   0  0  0  0  0  0  0  0  0  0  0  0
   -0.5297   -2.2315   -0.2679 C   0  0  0  0  0  0  0  0  0  0  0  0
    0.5542   -3.0550   -0.5264 C   0  0  0  0  0  0  0  0  0  0  0  0
   -5.8695   -1.2592   -0.5311 C   0  0  0  0  0  0  0  0  0  0  0  0
   -4.5262    0.2330    0.6371 C   0  0  0  0  0  0  0  0  0  0  0  0
   -4.6096   -0.4696   -0.7039 C   0  0  1  0  0  0  0  0  0  0  0  0
    1.1756   -3.8443    0.5790 C   0  0  0  0  0  0  0  0  0  0  0  0
   -2.2477   -0.6113   -1.1030 C   0  0  0  0  0  0  0  0  0  0  0  0
   -1.0633   -0.9071   -3.7749 C   0  0  0  0  0  0  0  0  0  0  0  0
    1.1156   -3.2065   -1.7469 N   0  0  0  0  0  0  0  0  0  0  0  0
   -6.5824   -0.6521    0.4818 N   0  0  0  0  0  0  0  0  0  0  0  0
   -3.4905   -1.3585   -0.9420 N   0  0  0  0  0  0  0  0  0  0  0  0
   -6.2082   -2.2342   -1.1844 O   0  0  0  0  0  0  0  0  0  0  0  0
   -4.3300   -1.5640   -5.8457 O   0  0  0  0  0  0  0  0  0  0  0  0
   -5.8871    0.4556    1.0137 O   0  0  0  0  0  0  0  0  0  0  0  0
   -1.0469   -2.1243    0.9842 O   0  0  0  0  0  0  0  0  0  0  0  0
   -1.9235   -0.8196   -6.6185 O   0  0  0  0  0  0  0  0  0  0  0  0
   -3.2205    0.6787   -5.0355 O   0  0  0  0  0  0  0  0  0  0  0  0
   -2.2813   -1.5103   -4.1961 O   0  0  0  0  0  0  0  0  0  0  0  0
   -3.0544   -0.8718   -5.4637 P   0  0  0  0  0  0  0  0  0  0  0  0
    1.0326   -2.6385   -3.7227 H   0  0  0  0  0  0  0  0  0  0  0  0
   -4.0514   -0.3764    1.4159 H   0  0  0  0  0  0  0  0  0  0  0  0
   -3.9972    1.1885    0.5701 H   0  0  0  0  0  0  0  0  0  0  0  0
   -4.7517    0.2342   -1.5230 H   0  0  0  0  0  0  0  0  0  0  0  0
    0.6936   -4.8252    0.6625 H   0  0  0  0  0  0  0  0  0  0  0  0
    2.2478   -3.9952    0.4039 H   0  0  0  0  0  0  0  0  0  0  0  0
    1.0790   -3.3241    1.5400 H   0  0  0  0  0  0  0  0  0  0  0  0
   -2.0994   -0.0055   -0.2024 H   0  0  0  0  0  0  0  0  0  0  0  0
   -2.3790    0.0800   -1.9420 H   0  0  0  0  0  0  0  0  0  0  0  0
   -1.2612    0.1464   -3.5307 H   0  0  0  0  0  0  0  0  0  0  0  0
   -0.3551   -0.9207   -4.6155 H   0  0  0  0  0  0  0  0  0  0  0  0
   -7.4903   -0.9621    0.8034 H   0  0  0  0  0  0  0  0  0  0  0  0
   -3.6610   -1.9041   -1.7891 H   0  0  0  0  0  0  0  0  0  0  0  0
   -1.7986   -1.5093    0.9885 H   0  0  0  0  0  0  0  0  0  0  0  0
   -1.5758   -1.6624   -6.9804 H   0  0  0  0  0  0  0  0  0  0  0  0
   -3.7922    0.9011   -4.2701 H   0  0  0  0  0  0  0  0  0  0  0  0
  1  2  2  0  0  0  0
  1 12  1  0  0  0  0
  1 23  1  0  0  0  0
  2  3  1  0  0  0  0
  2 11  1  0  0  0  0
  3  4  2  0  0  0  0
  3 10  1  0  0  0  0
  4  5  1  0  0  0  0
  4 18  1  0  0  0  0
  5  9  1  0  0  0  0
  5 12  2  0  0  0  0
  6  8  1  0  0  0  0
  6 13  1  0  0  0  0
  6 15  2  0  0  0  0
  7  8  1  0  0  0  0
  7 17  1  0  0  0  0
  7 24  1  0  0  0  0
  7 25  1  0  0  0  0
  8 14  1  0  0  0  0
  8 26  1  6  0  0  0
  9 27  1  0  0  0  0
  9 28  1  0  0  0  0
  9 29  1  0  0  0  0
 10 14  1  0  0  0  0
 10 30  1  0  0  0  0
 10 31  1  0  0  0  0
 11 21  1  0  0  0  0
 11 32  1  0  0  0  0
 11 33  1  0  0  0  0
 13 17  1  0  0  0  0
 13 34  1  0  0  0  0
 14 35  1  0  0  0  0
 16 22  2  0  0  0  0
 18 36  1  0  0  0  0
 19 22  1  0  0  0  0
 19 37  1  0  0  0  0
 20 22  1  0  0  0  0
 20 38  1  0  0  0  0
 21 22  1  0  0  0  0
M  END
$$$$
DrugBank_4419
 OpenBabel01151909533D

 40 43  0  0  0  0  0  0  0  0999 V2000
    0.6206   -1.9592   -0.6407 C   0  0  0  0  0  0  0  0  0  0  0  0
    0.7448   -0.7843    0.0984 C   0  0  0  0  0  0  0  0  0  0  0  0
    1.5761   -2.9684   -0.5160 C   0  0  0  0  0  0  0  0  0  0  0  0
    1.8251   -0.6141    0.9652 C   0  0  0  0  0  0  0  0  0  0  0  0
    5.1483    1.0395    4.3901 C   0  0  0  0  0  0  0  0  0  0  0  0
    6.4085    0.2415    2.4896 C   0  0  0  0  0  0  0  0  0  0  0  0
    6.2848    1.6899    4.8706 C   0  0  0  0  0  0  0  0  0  0  0  0
    7.5450    0.8920    2.9700 C   0  0  0  0  0  0  0  0  0  0  0  0
    3.2379   -5.3820   -2.6902 C   0  0  0  0  0  0  0  0  0  0  0  0
    5.3309   -4.4516   -1.9567 C   0  0  0  0  0  0  0  0  0  0  0  0
    3.7028   -5.2641   -3.9901 C   0  0  0  0  0  0  0  0  0  0  0  0
    5.7022   -4.3756   -3.2894 C   0  0  0  0  0  0  0  0  0  0  0  0
    2.6674   -2.8069    0.3540 C   0  0  0  0  0  0  0  0  0  0  0  0
    2.7925   -1.6242    1.0980 C   0  0  0  0  0  0  0  0  0  0  0  0
    4.0736   -4.9657   -1.6598 C   0  0  0  0  0  0  0  0  0  0  0  0
    5.2102    0.3152    3.1996 C   0  0  0  0  0  0  0  0  0  0  0  0
    7.4831    1.6162    4.1606 C   0  0  0  0  0  0  0  0  0  0  0  0
    3.6512   -3.7752    0.5217 C   0  0  0  0  0  0  0  0  0  0  0  0
    3.8904   -1.5140    1.9442 C   0  0  0  0  0  0  0  0  0  0  0  0
    3.6159   -5.0712   -0.2199 C   0  0  0  0  0  0  0  0  0  0  0  0
    4.9178   -4.7698   -4.3174 N   0  0  0  0  0  0  0  0  0  0  0  0
    4.7029   -3.6267    1.3560 N   0  0  0  0  0  0  0  0  0  0  0  0
    4.8241   -2.4808    2.0769 N   0  0  0  0  0  0  0  0  0  0  0  0
    4.0654   -0.3415    2.7174 N   0  0  0  0  0  0  0  0  0  0  0  0
    8.8850    2.4189    4.7537 Cl  0  0  0  0  0  0  0  0  0  0  0  0
   -0.2208   -2.0895   -1.3150 H   0  0  0  0  0  0  0  0  0  0  0  0
   -0.0008   -0.0006   -0.0004 H   0  0  0  0  0  0  0  0  0  0  0  0
    1.4499   -3.8723   -1.1068 H   0  0  0  0  0  0  0  0  0  0  0  0
    1.8889    0.3152    1.5258 H   0  0  0  0  0  0  0  0  0  0  0  0
    4.2197    1.1022    4.9515 H   0  0  0  0  0  0  0  0  0  0  0  0
    6.4681   -0.3215    1.5616 H   0  0  0  0  0  0  0  0  0  0  0  0
    6.2219    2.2491    5.8007 H   0  0  0  0  0  0  0  0  0  0  0  0
    8.4723    0.8240    2.4067 H   0  0  0  0  0  0  0  0  0  0  0  0
    2.2511   -5.7866   -2.4919 H   0  0  0  0  0  0  0  0  0  0  0  0
    6.0054   -4.1190   -1.1751 H   0  0  0  0  0  0  0  0  0  0  0  0
    3.0889   -5.5735   -4.8296 H   0  0  0  0  0  0  0  0  0  0  0  0
    6.6726   -3.9821   -3.5735 H   0  0  0  0  0  0  0  0  0  0  0  0
    2.5992   -5.4996   -0.1975 H   0  0  0  0  0  0  0  0  0  0  0  0
    4.2311   -5.8271    0.2976 H   0  0  0  0  0  0  0  0  0  0  0  0
    3.1923    0.1083    2.9687 H   0  0  0  0  0  0  0  0  0  0  0  0
  1  2  2  0  0  0  0
  1  3  1  0  0  0  0
  1 26  1  0  0  0  0
  2  4  1  0  0  0  0
  2 27  1  0  0  0  0
  3 13  2  0  0  0  0
  3 28  1  0  0  0  0
  4 14  2  0  0  0  0
  4 29  1  0  0  0  0
  5  7  2  0  0  0  0
  5 16  1  0  0  0  0
  5 30  1  0  0  0  0
  6  8  1  0  0  0  0
  6 16  2  0  0  0  0
  6 31  1  0  0  0  0
  7 17  1  0  0  0  0
  7 32  1  0  0  0  0
  8 17  2  0  0  0  0
  8 33  1  0  0  0  0
  9 11  2  0  0  0  0
  9 15  1  0  0  0  0
  9 34  1  0  0  0  0
 10 12  1  0  0  0  0
 10 15  2  0  0  0  0
 10 35  1  0  0  0  0
 11 21  1  0  0  0  0
 11 36  1  0  0  0  0
 12 21  2  0  0  0  0
 12 37  1  0  0  0  0
 13 14  1  0  0  0  0
 13 18  1  0  0  0  0
 14 19  1  0  0  0  0
 15 20  1  0  0  0  0
 16 24  1  0  0  0  0
 17 25  1  0  0  0  0
 18 20  1  0  0  0  0
 18 22  2  0  0  0  0
 19 23  2  0  0  0  0
 19 24  1  0  0  0  0
 20 38  1  0  0  0  0
 20 39  1  0  0  0  0
 22 23  1  0  0  0  0
 24 40  1  0  0  0  0
M  END
$$$$
DrugBank_1802
 OpenBabel01151909533D

 81 84  0  0  1  0  0  0  0  0999 V2000
    3.1774    2.3431   -5.6800 C   0  0  0  0  0  0  0  0  0  0  0  0
   -7.2035   -3.7120   -2.0766 C   0  0  0  0  0  0  0  0  0  0  0  0
   -8.7022    6.4275   -3.6127 C   0  0  0  0  0  0  0  0  0  0  0  0
    3.2739    3.0245   -4.4667 C   0  0  0  0  0  0  0  0  0  0  0  0
    2.1748    1.3917   -5.8677 C   0  0  0  0  0  0  0  0  0  0  0  0
   -7.6491   -2.4796   -1.5990 C   0  0  0  0  0  0  0  0  0  0  0  0
   -5.8598   -4.0645   -1.9504 C   0  0  0  0  0  0  0  0  0  0  0  0
   -8.9975    5.1702   -4.1395 C   0  0  0  0  0  0  0  0  0  0  0  0
   -7.4000    6.7279   -3.2129 C   0  0  0  0  0  0  0  0  0  0  0  0
    2.3679    2.7545   -3.4412 C   0  0  0  0  0  0  0  0  0  0  0  0
    1.2687    1.1217   -4.8422 C   0  0  0  0  0  0  0  0  0  0  0  0
   -6.7510   -1.5996   -0.9952 C   0  0  0  0  0  0  0  0  0  0  0  0
   -4.9616   -3.1844   -1.3467 C   0  0  0  0  0  0  0  0  0  0  0  0
   -7.9908    4.2131   -4.2663 C   0  0  0  0  0  0  0  0  0  0  0  0
   -6.3932    5.7708   -3.3397 C   0  0  0  0  0  0  0  0  0  0  0  0
   -0.2964   -5.6280    5.8671 C   0  0  0  0  0  0  0  0  0  0  0  0
   -2.5519   -4.8212    6.1816 C   0  0  0  0  0  0  0  0  0  0  0  0
   -0.0424   -4.5752    4.9880 C   0  0  0  0  0  0  0  0  0  0  0  0
   -2.2978   -3.7683    5.3025 C   0  0  0  0  0  0  0  0  0  0  0  0
    1.3652    1.8031   -3.6289 C   0  0  0  0  0  0  0  0  0  0  0  0
   -5.4072   -1.9519   -0.8691 C   0  0  0  0  0  0  0  0  0  0  0  0
   -6.6886    4.5134   -3.8664 C   0  0  0  0  0  0  0  0  0  0  0  0
   -1.5512   -5.7510    6.4638 C   0  0  0  0  0  0  0  0  0  0  0  0
   -1.0430   -3.6454    4.7058 C   0  0  0  0  0  0  0  0  0  0  0  0
   -2.5119    0.5600   -0.6248 C   0  0  0  0  0  0  0  0  0  0  0  0
   -4.5981    1.7224   -2.7750 C   0  0  0  0  0  0  0  0  0  0  0  0
    0.3855    1.5105   -2.5206 C   0  0  0  0  0  0  0  0  0  0  0  0
   -4.4349   -1.0001   -0.2161 C   0  0  0  0  0  0  0  0  0  0  0  0
   -5.6051    3.4843   -4.0024 C   0  0  0  0  0  0  0  0  0  0  0  0
    0.8879    0.3868   -1.6054 C   0  0  0  0  0  0  0  0  0  0  0  0
    0.4814   -1.0299    0.4441 C   0  0  0  0  0  0  0  0  0  0  0  0
   -0.3763   -1.3685    1.6593 C   0  0  0  0  0  0  0  0  0  0  0  0
   -3.7816   -0.0406   -1.2175 C   0  0  1  0  0  0  0  0  0  0  0  0
   -0.0666    0.1121   -0.4301 C   0  0  2  0  0  0  0  0  0  0  0  0
   -1.3910   -0.2061   -0.9131 N   0  0  0  0  0  0  0  0  0  0  0  0
   -4.6493    1.0560   -1.5666 N   0  0  0  0  0  0  0  0  0  0  0  0
   -1.8102   -6.8227    7.3586 N   0  0  0  0  0  0  0  0  0  0  0  0
   -0.8964   -7.6484    7.5989 O   0  0  0  0  0  0  0  0  0  0  0  0
   -2.5113    1.5796    0.0617 O   0  0  0  0  0  0  0  0  0  0  0  0
   -3.8241    1.4763   -3.6943 O   0  0  0  0  0  0  0  0  0  0  0  0
   -2.9457   -6.9148    7.8846 O   0  0  0  0  0  0  0  0  0  0  0  0
    1.5924   -2.3539    3.0631 O   0  0  0  0  0  0  0  0  0  0  0  0
    0.0198   -3.9415    1.8601 O   0  0  0  0  0  0  0  0  0  0  0  0
   -0.7927   -2.6084    3.8400 O   0  0  0  0  0  0  0  0  0  0  0  0
   -5.5447    2.7076   -2.8007 O   0  0  0  0  0  0  0  0  0  0  0  0
    0.2640   -2.7157    2.6002 S   0  0  0  0  0  0  0  0  0  0  0  0
    3.8822    2.5545   -6.4789 H   0  0  0  0  0  0  0  0  0  0  0  0
   -7.9032   -4.3978   -2.5455 H   0  0  0  0  0  0  0  0  0  0  0  0
   -9.4859    7.1731   -3.5153 H   0  0  0  0  0  0  0  0  0  0  0  0
    4.0539    3.7661   -4.3207 H   0  0  0  0  0  0  0  0  0  0  0  0
    2.0987    0.8618   -6.8126 H   0  0  0  0  0  0  0  0  0  0  0  0
   -8.6955   -2.2055   -1.6961 H   0  0  0  0  0  0  0  0  0  0  0  0
   -5.5127   -5.0244   -2.3212 H   0  0  0  0  0  0  0  0  0  0  0  0
  -10.0112    4.9366   -4.4519 H   0  0  0  0  0  0  0  0  0  0  0  0
   -7.1694    7.7070   -2.8037 H   0  0  0  0  0  0  0  0  0  0  0  0
    2.4508    3.2901   -2.4992 H   0  0  0  0  0  0  0  0  0  0  0  0
    0.4909    0.3787   -4.9974 H   0  0  0  0  0  0  0  0  0  0  0  0
   -7.1071   -0.6413   -0.6261 H   0  0  0  0  0  0  0  0  0  0  0  0
   -3.9165   -3.4674   -1.2529 H   0  0  0  0  0  0  0  0  0  0  0  0
   -8.2302    3.2360   -4.6776 H   0  0  0  0  0  0  0  0  0  0  0  0
   -5.3816    6.0136   -3.0254 H   0  0  0  0  0  0  0  0  0  0  0  0
    0.4925   -6.3456    6.0787 H   0  0  0  0  0  0  0  0  0  0  0  0
   -3.5345   -4.9053    6.6393 H   0  0  0  0  0  0  0  0  0  0  0  0
    0.9372   -4.4845    4.5265 H   0  0  0  0  0  0  0  0  0  0  0  0
   -3.0815   -3.0474    5.0863 H   0  0  0  0  0  0  0  0  0  0  0  0
   -0.5841    1.2471   -2.9609 H   0  0  0  0  0  0  0  0  0  0  0  0
    0.2136    2.4234   -1.9364 H   0  0  0  0  0  0  0  0  0  0  0  0
   -4.9462   -0.4345    0.5746 H   0  0  0  0  0  0  0  0  0  0  0  0
   -3.6697   -1.5926    0.3026 H   0  0  0  0  0  0  0  0  0  0  0  0
   -5.8020    2.8177   -4.8489 H   0  0  0  0  0  0  0  0  0  0  0  0
   -4.6343    3.9631   -4.1698 H   0  0  0  0  0  0  0  0  0  0  0  0
    1.0297   -0.5305   -2.1926 H   0  0  0  0  0  0  0  0  0  0  0  0
    1.8749    0.6619   -1.2109 H   0  0  0  0  0  0  0  0  0  0  0  0
    0.5741   -1.9363   -0.1684 H   0  0  0  0  0  0  0  0  0  0  0  0
    1.4925   -0.7720    0.7837 H   0  0  0  0  0  0  0  0  0  0  0  0
   -0.4910   -0.5190    2.3378 H   0  0  0  0  0  0  0  0  0  0  0  0
   -1.3743   -1.6779    1.3319 H   0  0  0  0  0  0  0  0  0  0  0  0
   -3.5329   -0.5527   -2.1545 H   0  0  0  0  0  0  0  0  0  0  0  0
   -0.1609    1.0259    0.1660 H   0  0  0  0  0  0  0  0  0  0  0  0
   -1.5074   -1.0321   -1.4928 H   0  0  0  0  0  0  0  0  0  0  0  0
   -5.3396    1.3566   -0.8830 H   0  0  0  0  0  0  0  0  0  0  0  0
  1  4  2  0  0  0  0
  1  5  1  0  0  0  0
  1 47  1  0  0  0  0
  2  6  2  0  0  0  0
  2  7  1  0  0  0  0
  2 48  1  0  0  0  0
  3  8  2  0  0  0  0
  3  9  1  0  0  0  0
  3 49  1  0  0  0  0
  4 10  1  0  0  0  0
  4 50  1  0  0  0  0
  5 11  2  0  0  0  0
  5 51  1  0  0  0  0
  6 12  1  0  0  0  0
  6 52  1  0  0  0  0
  7 13  2  0  0  0  0
  7 53  1  0  0  0  0
  8 14  1  0  0  0  0
  8 54  1  0  0  0  0
  9 15  2  0  0  0  0
  9 55  1  0  0  0  0
 10 20  2  0  0  0  0
 10 56  1  0  0  0  0
 11 20  1  0  0  0  0
 11 57  1  0  0  0  0
 12 21  2  0  0  0  0
 12 58  1  0  0  0  0
 13 21  1  0  0  0  0
 13 59  1  0  0  0  0
 14 22  2  0  0  0  0
 14 60  1  0  0  0  0
 15 22  1  0  0  0  0
 15 61  1  0  0  0  0
 16 18  2  0  0  0  0
 16 23  1  0  0  0  0
 16 62  1  0  0  0  0
 17 19  1  0  0  0  0
 17 23  2  0  0  0  0
 17 63  1  0  0  0  0
 18 24  1  0  0  0  0
 18 64  1  0  0  0  0
 19 24  2  0  0  0  0
 19 65  1  0  0  0  0
 20 27  1  0  0  0  0
 21 28  1  0  0  0  0
 22 29  1  0  0  0  0
 23 37  1  0  0  0  0
 24 44  1  0  0  0  0
 25 33  1  0  0  0  0
 25 35  1  0  0  0  0
 25 39  2  0  0  0  0
 26 36  1  0  0  0  0
 26 40  2  0  0  0  0
 26 45  1  0  0  0  0
 27 30  1  0  0  0  0
 27 66  1  0  0  0  0
 27 67  1  0  0  0  0
 28 33  1  0  0  0  0
 28 68  1  0  0  0  0
 28 69  1  0  0  0  0
 29 45  1  0  0  0  0
 29 70  1  0  0  0  0
 29 71  1  0  0  0  0
 30 34  1  0  0  0  0
 30 72  1  0  0  0  0
 30 73  1  0  0  0  0
 31 32  1  0  0  0  0
 31 34  1  0  0  0  0
 31 74  1  0  0  0  0
 31 75  1  0  0  0  0
 32 46  1  0  0  0  0
 32 76  1  0  0  0  0
 32 77  1  0  0  0  0
 33 36  1  0  0  0  0
 33 78  1  6  0  0  0
 34 35  1  0  0  0  0
 34 79  1  1  0  0  0
 35 80  1  0  0  0  0
 36 81  1  0  0  0  0
 37 38  1  0  0  0  0
 37 41  2  0  0  0  0
 42 46  2  0  0  0  0
 43 46  2  0  0  0  0
 44 46  1  0  0  0  0
M  END
$$$$
DrugBank_4434
 OpenBabel01151909533D

 40 41  0  0  1  0  0  0  0  0999 V2000
    2.6151   -3.7118   -1.7397 C   0  0  0  0  0  0  0  0  0  0  0  0
    2.0945   -4.0507   -0.4908 C   0  0  0  0  0  0  0  0  0  0  0  0
    2.3889   -2.4408   -2.2681 C   0  0  0  0  0  0  0  0  0  0  0  0
    1.3477   -3.1187    0.2297 C   0  0  0  0  0  0  0  0  0  0  0  0
    1.6421   -1.5088   -1.5475 C   0  0  0  0  0  0  0  0  0  0  0  0
    1.1215   -1.8477   -0.2986 C   0  0  0  0  0  0  0  0  0  0  0  0
    0.9063   -0.5088    1.8118 C   0  0  0  0  0  0  0  0  0  0  0  0
   -0.3629    0.2596   -0.2759 C   0  0  0  0  0  0  0  0  0  0  0  0
   -1.1760   -0.8506    0.3142 C   0  0  1  0  0  0  0  0  0  0  0  0
    0.3300   -0.8609    0.4633 C   0  0  1  0  0  0  0  0  0  0  0  0
    1.0038    2.5734    2.9651 C   0  0  0  0  0  0  0  0  0  0  0  0
    3.9599    0.1940    0.7924 C   0  0  0  0  0  0  0  0  0  0  0  0
   -2.1080   -0.5709    1.4442 C   0  0  0  0  0  0  0  0  0  0  0  0
    1.9419    1.4162    3.0235 C   0  0  0  0  0  0  0  0  0  0  0  0
    2.6539    0.9091    0.7181 C   0  0  0  0  0  0  0  0  0  0  0  0
   -3.3342    0.0105    0.9725 N   0  0  0  0  0  0  0  0  0  0  0  0
    1.7985    0.5634    1.8505 N   0  0  0  0  0  0  0  0  0  0  0  0
    0.5722   -1.1680    2.7999 O   0  0  0  0  0  0  0  0  0  0  0  0
    3.1967   -4.4375   -2.3006 H   0  0  0  0  0  0  0  0  0  0  0  0
    2.2707   -5.0403   -0.0790 H   0  0  0  0  0  0  0  0  0  0  0  0
    2.7942   -2.1772   -3.2408 H   0  0  0  0  0  0  0  0  0  0  0  0
    0.9458   -3.3924    1.2016 H   0  0  0  0  0  0  0  0  0  0  0  0
    1.4710   -0.5214   -1.9686 H   0  0  0  0  0  0  0  0  0  0  0  0
   -0.2662    0.2903   -1.3556 H   0  0  0  0  0  0  0  0  0  0  0  0
   -0.4209    1.2420    0.1797 H   0  0  0  0  0  0  0  0  0  0  0  0
   -1.6067   -1.5714   -0.3733 H   0  0  0  0  0  0  0  0  0  0  0  0
    1.1995    3.1909    2.0817 H   0  0  0  0  0  0  0  0  0  0  0  0
   -0.0367    2.2316    2.9435 H   0  0  0  0  0  0  0  0  0  0  0  0
    1.1352    3.2031    3.8532 H   0  0  0  0  0  0  0  0  0  0  0  0
    4.4997    0.4602    1.7077 H   0  0  0  0  0  0  0  0  0  0  0  0
    3.8129   -0.8911    0.7626 H   0  0  0  0  0  0  0  0  0  0  0  0
    4.5862    0.4746   -0.0628 H   0  0  0  0  0  0  0  0  0  0  0  0
   -1.6547    0.1319    2.1495 H   0  0  0  0  0  0  0  0  0  0  0  0
   -2.3591   -1.4927    1.9768 H   0  0  0  0  0  0  0  0  0  0  0  0
    1.7411    0.8040    3.9079 H   0  0  0  0  0  0  0  0  0  0  0  0
    2.9799    1.7596    3.0610 H   0  0  0  0  0  0  0  0  0  0  0  0
    2.1204    0.6388   -0.1981 H   0  0  0  0  0  0  0  0  0  0  0  0
    2.8035    1.9927    0.7321 H   0  0  0  0  0  0  0  0  0  0  0  0
   -3.3053    0.6726    0.2126 H   0  0  0  0  0  0  0  0  0  0  0  0
   -4.1710   -0.0877    1.5265 H   0  0  0  0  0  0  0  0  0  0  0  0
  1  2  2  0  0  0  0
  1  3  1  0  0  0  0
  1 19  1  0  0  0  0
  2  4  1  0  0  0  0
  2 20  1  0  0  0  0
  3  5  2  0  0  0  0
  3 21  1  0  0  0  0
  4  6  2  0  0  0  0
  4 22  1  0  0  0  0
  5  6  1  0  0  0  0
  5 23  1  0  0  0  0
  6 10  1  0  0  0  0
  7 17  1  0  0  0  0
  7 18  2  0  0  0  0
  8  9  1  0  0  0  0
  8 10  1  0  0  0  0
  8 24  1  0  0  0  0
  8 25  1  0  0  0  0
  9 10  1  1  0  0  0
  9 13  1  0  0  0  0
  9 26  1  0  0  0  0
 10  7  1  1  0  0  0
 11 14  1  0  0  0  0
 11 27  1  0  0  0  0
 11 28  1  0  0  0  0
 11 29  1  0  0  0  0
 12 15  1  0  0  0  0
 12 30  1  0  0  0  0
 12 31  1  0  0  0  0
 12 32  1  0  0  0  0
 13 16  1  0  0  0  0
 13 33  1  0  0  0  0
 13 34  1  0  0  0  0
 14 17  1  0  0  0  0
 14 35  1  0  0  0  0
 14 36  1  0  0  0  0
 15 17  1  0  0  0  0
 15 37  1  0  0  0  0
 15 38  1  0  0  0  0
 16 39  1  0  0  0  0
 16 40  1  0  0  0  0
M  END
$$$$
DrugBank_6775
 OpenBabel01151909533D

 36 38  0  0  0  0  0  0  0  0999 V2000
    1.9943   -0.6969   -0.4176 C   0  0  0  0  0  0  0  0  0  0  0  0
    0.6397   -0.5272   -0.7017 C   0  0  0  0  0  0  0  0  0  0  0  0
    2.8262   -1.3743   -1.3161 C   0  0  0  0  0  0  0  0  0  0  0  0
    0.1088   -1.0347   -1.8833 C   0  0  0  0  0  0  0  0  0  0  0  0
    2.3171   -1.8919   -2.5159 C   0  0  0  0  0  0  0  0  0  0  0  0
    0.9511   -1.7113   -2.7639 C   0  0  0  0  0  0  0  0  0  0  0  0
    2.9198   -5.9415   -5.4707 C   0  0  0  0  0  0  0  0  0  0  0  0
    3.1805   -2.6138   -3.4816 C   0  0  0  0  0  0  0  0  0  0  0  0
    2.8816   -2.7299   -4.7915 C   0  0  0  0  0  0  0  0  0  0  0  0
    2.3158   -7.0968   -5.7635 C   0  0  0  0  0  0  0  0  0  0  0  0
    2.5773   -5.1443   -6.6537 C   0  0  0  0  0  0  0  0  0  0  0  0
    3.7289   -3.3766   -5.7976 C   0  0  0  0  0  0  0  0  0  0  0  0
    2.3041   -8.3264   -4.9298 C   0  0  0  0  0  0  0  0  0  0  0  0
    1.8524   -0.7710   -5.8902 C   0  0  0  0  0  0  0  0  0  0  0  0
    2.9665   -3.9245   -6.8012 N   0  0  0  0  0  0  0  0  0  0  0  0
    1.8193   -5.8901   -7.5105 N   0  0  0  0  0  0  0  0  0  0  0  0
    1.6736   -2.1302   -5.3014 N   0  0  0  0  0  0  0  0  0  0  0  0
    4.9504   -3.3800   -5.6806 O   0  0  0  0  0  0  0  0  0  0  0  0
   -0.7702   -1.4867   -4.7018 O   0  0  0  0  0  0  0  0  0  0  0  0
    0.0872   -3.7692   -4.0411 O   0  0  0  0  0  0  0  0  0  0  0  0
    1.6256   -7.1572   -6.9788 O   0  0  0  0  0  0  0  0  0  0  0  0
    4.3246   -3.1374   -2.9093 O   0  0  0  0  0  0  0  0  0  0  0  0
    0.3080   -2.3537   -4.2676 S   0  0  0  0  0  0  0  0  0  0  0  0
    2.4064   -0.3015    0.5070 H   0  0  0  0  0  0  0  0  0  0  0  0
   -0.0014   -0.0059    0.0040 H   0  0  0  0  0  0  0  0  0  0  0  0
    3.8751   -1.4866   -1.0569 H   0  0  0  0  0  0  0  0  0  0  0  0
   -0.9447   -0.8959   -2.0969 H   0  0  0  0  0  0  0  0  0  0  0  0
    3.5012   -5.6508   -4.6164 H   0  0  0  0  0  0  0  0  0  0  0  0
    1.4498   -8.3124   -4.2490 H   0  0  0  0  0  0  0  0  0  0  0  0
    3.2231   -8.3931   -4.3423 H   0  0  0  0  0  0  0  0  0  0  0  0
    2.2352   -9.2126   -5.5654 H   0  0  0  0  0  0  0  0  0  0  0  0
    0.8941   -0.3891   -6.2517 H   0  0  0  0  0  0  0  0  0  0  0  0
    2.5538   -0.8113   -6.7281 H   0  0  0  0  0  0  0  0  0  0  0  0
    2.2446   -0.0817   -5.1377 H   0  0  0  0  0  0  0  0  0  0  0  0
    1.4263   -5.6365   -8.4071 H   0  0  0  0  0  0  0  0  0  0  0  0
    4.8419   -3.5914   -3.5802 H   0  0  0  0  0  0  0  0  0  0  0  0
  1  2  2  0  0  0  0
  1  3  1  0  0  0  0
  1 24  1  0  0  0  0
  2  4  1  0  0  0  0
  2 25  1  0  0  0  0
  3  5  2  0  0  0  0
  3 26  1  0  0  0  0
  4  6  2  0  0  0  0
  4 27  1  0  0  0  0
  5  6  1  0  0  0  0
  5  8  1  0  0  0  0
  6 23  1  0  0  0  0
  7 10  2  0  0  0  0
  7 11  1  0  0  0  0
  7 28  1  0  0  0  0
  8  9  2  0  0  0  0
  8 22  1  0  0  0  0
  9 12  1  0  0  0  0
  9 17  1  0  0  0  0
 10 13  1  0  0  0  0
 10 21  1  0  0  0  0
 11 15  2  0  0  0  0
 11 16  1  0  0  0  0
 12 15  1  0  0  0  0
 12 18  2  0  0  0  0
 13 29  1  0  0  0  0
 13 30  1  0  0  0  0
 13 31  1  0  0  0  0
 14 17  1  0  0  0  0
 14 32  1  0  0  0  0
 14 33  1  0  0  0  0
 14 34  1  0  0  0  0
 16 21  1  0  0  0  0
 16 35  1  0  0  0  0
 17 23  1  0  0  0  0
 19 23  2  0  0  0  0
 20 23  2  0  0  0  0
 22 36  1  0  0  0  0
M  END
$$$$
DrugBank_6801
 OpenBabel01151909533D

 61 65  0  0  1  0  0  0  0  0999 V2000
   -2.2828    4.1284    0.6550 C   0  0  0  0  0  0  0  0  0  0  0  0
   -1.2567    3.8070   -1.6364 C   0  0  0  0  0  0  0  0  0  0  0  0
   -2.4390    2.8049    0.7576 C   0  0  0  0  0  0  0  0  0  0  0  0
   -1.4137    2.4774   -1.5354 C   0  0  0  0  0  0  0  0  0  0  0  0
   -1.6839    4.7208   -0.5557 C   0  0  0  0  0  0  0  0  0  0  0  0
    1.0991   -4.1666    1.9221 C   0  0  0  0  0  0  0  0  0  0  0  0
    0.0272    0.5066   -2.1143 C   0  0  0  0  0  0  0  0  0  0  0  0
    1.2145   -2.2338   -1.2908 C   0  0  0  0  0  0  0  0  0  0  0  0
   -0.3505   -1.1608    1.9791 C   0  0  0  0  0  0  0  0  0  0  0  0
   -0.9527    1.5505   -2.6345 C   0  0  2  0  0  0  0  0  0  0  0  0
   -0.5001   -0.2478   -0.8784 C   0  0  1  0  0  0  0  0  0  0  0  0
    0.5614   -1.2248   -0.3425 C   0  0  1  0  0  0  0  0  0  0  0  0
    1.8620   -3.2643   -0.3377 C   0  0  2  0  0  0  0  0  0  0  0  0
   -1.3741   -0.0576    1.5797 C   0  0  1  0  0  0  0  0  0  0  0  0
   -2.0453    1.7913   -0.3091 C   0  0  1  0  0  0  0  0  0  0  0  0
    1.3346   -2.9553    1.0680 C   0  0  1  0  0  0  0  0  0  0  0  0
    0.0598   -2.1018    0.8259 C   0  0  1  0  0  0  0  0  0  0  0  0
   -0.9896    0.7317    0.2653 C   0  0  2  0  0  0  0  0  0  0  0  0
    3.5767   -2.4789    0.9713 C   0  0  0  0  0  0  0  0  0  0  0  0
   -3.3817    1.1874   -0.8138 C   0  0  0  0  0  0  0  0  0  0  0  0
   -1.1035   -3.0488    0.4212 C   0  0  0  0  0  0  0  0  0  0  0  0
    4.3024   -1.1615    0.7274 C   0  0  0  0  0  0  0  0  0  0  0  0
    4.4592   -3.4322    1.7724 C   0  0  0  0  0  0  0  0  0  0  0  0
    1.2706   -3.9783    3.4145 C   0  0  0  0  0  0  0  0  0  0  0  0
   -1.5419    5.9346   -0.6612 O   0  0  0  0  0  0  0  0  0  0  0  0
    0.7841   -5.2471    1.4257 O   0  0  0  0  0  0  0  0  0  0  0  0
    3.2751   -3.0885   -0.2853 O   0  0  0  0  0  0  0  0  0  0  0  0
    2.3768   -2.2217    1.7066 O   0  0  0  0  0  0  0  0  0  0  0  0
    1.0344   -5.1896    4.1002 O   0  0  0  0  0  0  0  0  0  0  0  0
   -0.3310    2.2267   -3.6452 F   0  0  0  0  0  0  0  0  0  0  0  0
   -3.0148   -0.7748    1.5904 Cl  0  0  0  0  0  0  0  0  0  0  0  0
    0.5033    1.7473    0.8019 Cl  0  0  0  0  0  0  0  0  0  0  0  0
   -2.5925    4.7958    1.4507 H   0  0  0  0  0  0  0  0  0  0  0  0
   -0.8059    4.2666   -2.5093 H   0  0  0  0  0  0  0  0  0  0  0  0
   -2.8966    2.4241    1.6679 H   0  0  0  0  0  0  0  0  0  0  0  0
    0.2318   -0.2021   -2.9266 H   0  0  0  0  0  0  0  0  0  0  0  0
    0.9926    0.9839   -1.9034 H   0  0  0  0  0  0  0  0  0  0  0  0
    0.4544   -2.7170   -1.9145 H   0  0  0  0  0  0  0  0  0  0  0  0
    1.9494   -1.7595   -1.9491 H   0  0  0  0  0  0  0  0  0  0  0  0
    0.5424   -0.6569    2.3699 H   0  0  0  0  0  0  0  0  0  0  0  0
   -0.7332   -1.7481    2.8242 H   0  0  0  0  0  0  0  0  0  0  0  0
   -1.8191    1.0562   -3.0863 H   0  0  0  0  0  0  0  0  0  0  0  0
   -1.3598   -0.8315   -1.2224 H   0  0  0  0  0  0  0  0  0  0  0  0
    1.3937   -0.6081    0.0184 H   0  0  0  0  0  0  0  0  0  0  0  0
    1.6509   -4.2806   -0.6858 H   0  0  0  0  0  0  0  0  0  0  0  0
   -1.4122    0.6519    2.4146 H   0  0  0  0  0  0  0  0  0  0  0  0
   -3.1631    0.4555   -1.5787 H   0  0  0  0  0  0  0  0  0  0  0  0
   -3.9891    1.9840   -1.2201 H   0  0  0  0  0  0  0  0  0  0  0  0
   -3.8860    0.7193    0.0199 H   0  0  0  0  0  0  0  0  0  0  0  0
   -0.7649   -3.6825   -0.3853 H   0  0  0  0  0  0  0  0  0  0  0  0
   -1.9405   -2.4460    0.1008 H   0  0  0  0  0  0  0  0  0  0  0  0
   -1.3750   -3.6447    1.2803 H   0  0  0  0  0  0  0  0  0  0  0  0
    3.6665   -0.4861    0.1551 H   0  0  0  0  0  0  0  0  0  0  0  0
    5.2214   -1.3400    0.1693 H   0  0  0  0  0  0  0  0  0  0  0  0
    4.5516   -0.6916    1.6789 H   0  0  0  0  0  0  0  0  0  0  0  0
    3.9325   -4.3703    1.9416 H   0  0  0  0  0  0  0  0  0  0  0  0
    4.7086   -2.9857    2.7340 H   0  0  0  0  0  0  0  0  0  0  0  0
    5.3787   -3.6341    1.2245 H   0  0  0  0  0  0  0  0  0  0  0  0
    0.5702   -3.2197    3.7745 H   0  0  0  0  0  0  0  0  0  0  0  0
    2.2964   -3.6599    3.6179 H   0  0  0  0  0  0  0  0  0  0  0  0
    0.1206   -5.4611    3.9021 H   0  0  0  0  0  0  0  0  0  0  0  0
  1  3  2  0  0  0  0
  1  5  1  0  0  0  0
  1 33  1  0  0  0  0
  2  4  2  0  0  0  0
  2  5  1  0  0  0  0
  2 34  1  0  0  0  0
  3 15  1  0  0  0  0
  3 35  1  0  0  0  0
  4 10  1  0  0  0  0
  4 15  1  0  0  0  0
  5 25  2  0  0  0  0
  6 16  1  0  0  0  0
  6 24  1  0  0  0  0
  6 26  2  0  0  0  0
  7 10  1  0  0  0  0
  7 11  1  0  0  0  0
  7 36  1  0  0  0  0
  7 37  1  0  0  0  0
  8 12  1  0  0  0  0
  8 13  1  0  0  0  0
  8 38  1  0  0  0  0
  8 39  1  0  0  0  0
  9 14  1  0  0  0  0
  9 17  1  0  0  0  0
  9 40  1  0  0  0  0
  9 41  1  0  0  0  0
 10 30  1  0  0  0  0
 10 42  1  6  0  0  0
 11 12  1  1  0  0  0
 11 43  1  0  0  0  0
 12 17  1  1  0  0  0
 12 44  1  0  0  0  0
 13 16  1  1  0  0  0
 13 27  1  0  0  0  0
 13 45  1  0  0  0  0
 14 18  1  6  0  0  0
 14 31  1  0  0  0  0
 14 46  1  0  0  0  0
 15 18  1  1  0  0  0
 15 20  1  0  0  0  0
 16 17  1  6  0  0  0
 16 28  1  0  0  0  0
 17 21  1  6  0  0  0
 18 11  1  6  0  0  0
 18 32  1  0  0  0  0
 19 22  1  0  0  0  0
 19 23  1  0  0  0  0
 19 27  1  0  0  0  0
 19 28  1  0  0  0  0
 20 47  1  0  0  0  0
 20 48  1  0  0  0  0
 20 49  1  0  0  0  0
 21 50  1  0  0  0  0
 21 51  1  0  0  0  0
 21 52  1  0  0  0  0
 22 53  1  0  0  0  0
 22 54  1  0  0  0  0
 22 55  1  0  0  0  0
 23 56  1  0  0  0  0
 23 57  1  0  0  0  0
 23 58  1  0  0  0  0
 24 29  1  0  0  0  0
 24 59  1  0  0  0  0
 24 60  1  0  0  0  0
 29 61  1  0  0  0  0
M  END
$$$$
DrugBank_4468
 OpenBabel01151909533D

 87 87  0  0  1  0  0  0  0  0999 V2000
   -1.5961    9.2081    3.4269 C   0  0  0  0  0  0  0  0  0  0  0  0
   -1.6485    8.1677    4.3546 C   0  0  0  0  0  0  0  0  0  0  0  0
   -2.6090    9.3481    2.4781 C   0  0  0  0  0  0  0  0  0  0  0  0
   -2.7136    7.2673    4.3333 C   0  0  0  0  0  0  0  0  0  0  0  0
   -3.6741    8.4477    2.4568 C   0  0  0  0  0  0  0  0  0  0  0  0
   -3.7264    7.4073    3.3844 C   0  0  0  0  0  0  0  0  0  0  0  0
   -7.5092   10.1103    2.1683 C   0  0  0  0  0  0  0  0  0  0  0  0
   -6.8744    7.5689    3.7716 C   0  0  0  0  0  0  0  0  0  0  0  0
   -4.6159    5.2368    2.4732 C   0  0  0  0  0  0  0  0  0  0  0  0
   -8.0917   11.7378   -1.9037 C   0  0  0  0  0  0  0  0  0  0  0  0
   -7.2890   10.9003    0.9080 C   0  0  0  0  0  0  0  0  0  0  0  0
   -8.5277   11.7341    0.5801 C   0  0  0  0  0  0  0  0  0  0  0  0
  -16.9423    7.6731    3.1646 C   0  0  0  0  0  0  0  0  0  0  0  0
  -16.5966    7.0358    0.8846 C   0  0  0  0  0  0  0  0  0  0  0  0
  -15.9766   11.4586    2.0390 C   0  0  0  0  0  0  0  0  0  0  0  0
  -14.1192   10.9433    3.4421 C   0  0  0  0  0  0  0  0  0  0  0  0
  -13.2479    7.0074    2.1751 C   0  0  0  0  0  0  0  0  0  0  0  0
  -11.9915    6.6887    2.9619 C   0  0  0  0  0  0  0  0  0  0  0  0
   -9.3015    7.2649    3.3616 C   0  0  0  0  0  0  0  0  0  0  0  0
  -18.4413    7.8942    3.2776 C   0  0  0  0  0  0  0  0  0  0  0  0
  -16.6061    7.5583   -0.5421 C   0  0  0  0  0  0  0  0  0  0  0  0
  -17.3753   11.0526    1.6062 C   0  0  0  0  0  0  0  0  0  0  0  0
  -13.1022   11.5863    2.5143 C   0  0  0  0  0  0  0  0  0  0  0  0
   -4.8798    6.4327    3.3607 C   0  0  2  0  0  0  0  0  0  0  0  0
   -8.1664    8.2726    3.4405 C   0  0  2  0  0  0  0  0  0  0  0  0
   -8.3500   12.5935   -0.6765 C   0  0  2  0  0  0  0  0  0  0  0  0
   -6.1048    7.0556    2.8738 N   0  0  0  0  0  0  0  0  0  0  0  0
   -7.9919    8.9206    2.1360 N   0  0  0  0  0  0  0  0  0  0  0  0
   -9.5729   13.3546   -0.9467 N   0  0  0  0  0  0  0  0  0  0  0  0
  -16.4073    8.0985    1.8706 N   0  0  0  0  0  0  0  0  0  0  0  0
  -15.2604   10.3746    2.7190 N   0  0  0  0  0  0  0  0  0  0  0  0
   -3.5845    5.0166    1.8541 O   0  0  0  0  0  0  0  0  0  0  0  0
   -8.9603   11.2389   -2.6085 O   0  0  0  0  0  0  0  0  0  0  0  0
  -14.4232    9.2359    0.4544 O   0  0  0  0  0  0  0  0  0  0  0  0
  -11.1950    8.9429    4.0186 O   0  0  0  0  0  0  0  0  0  0  0  0
  -10.7400    8.5153    1.5728 O   0  0  0  0  0  0  0  0  0  0  0  0
   -7.1791   10.7706    3.3019 O   0  0  0  0  0  0  0  0  0  0  0  0
   -6.5797    7.5729    5.0942 O   0  0  0  0  0  0  0  0  0  0  0  0
   -5.6827    4.3950    2.4669 O   0  0  0  0  0  0  0  0  0  0  0  0
   -6.7659   11.5988   -2.1655 O   0  0  0  0  0  0  0  0  0  0  0  0
  -13.9106    8.1284    2.7335 O   0  0  0  0  0  0  0  0  0  0  0  0
  -14.9811    8.9734    1.8351 P   0  0  0  0  0  0  0  0  0  0  0  0
  -10.8477    8.0345    2.9394 S   0  0  0  0  0  0  0  0  0  0  0  0
  -19.0555    7.3710    4.8654 Cl  0  0  0  0  0  0  0  0  0  0  0  0
  -16.8442    6.2384   -1.7138 Cl  0  0  0  0  0  0  0  0  0  0  0  0
  -18.2118   12.3904    0.7801 Cl  0  0  0  0  0  0  0  0  0  0  0  0
  -11.7288   12.2604    3.4261 Cl  0  0  0  0  0  0  0  0  0  0  0  0
   -0.7674    9.9099    3.4445 H   0  0  0  0  0  0  0  0  0  0  0  0
   -0.8605    8.0592    5.0941 H   0  0  0  0  0  0  0  0  0  0  0  0
   -2.5691   10.1586    1.7564 H   0  0  0  0  0  0  0  0  0  0  0  0
   -2.7460    6.4596    5.0598 H   0  0  0  0  0  0  0  0  0  0  0  0
   -4.4586    8.5645    1.7139 H   0  0  0  0  0  0  0  0  0  0  0  0
   -7.0733   10.2003    0.0923 H   0  0  0  0  0  0  0  0  0  0  0  0
   -6.4034   11.5313    1.0374 H   0  0  0  0  0  0  0  0  0  0  0  0
   -9.3815   11.0567    0.4425 H   0  0  0  0  0  0  0  0  0  0  0  0
   -8.7744   12.3673    1.4431 H   0  0  0  0  0  0  0  0  0  0  0  0
  -16.6824    6.6189    3.3046 H   0  0  0  0  0  0  0  0  0  0  0  0
  -16.4202    8.2564    3.9295 H   0  0  0  0  0  0  0  0  0  0  0  0
  -15.8041    6.2953    1.0335 H   0  0  0  0  0  0  0  0  0  0  0  0
  -17.5546    6.5590    1.1140 H   0  0  0  0  0  0  0  0  0  0  0  0
  -16.0018   12.3195    2.7149 H   0  0  0  0  0  0  0  0  0  0  0  0
  -15.3793   11.7314    1.1634 H   0  0  0  0  0  0  0  0  0  0  0  0
  -14.5082   11.6635    4.1691 H   0  0  0  0  0  0  0  0  0  0  0  0
  -13.6535   10.1210    3.9941 H   0  0  0  0  0  0  0  0  0  0  0  0
  -12.9981    7.2480    1.1370 H   0  0  0  0  0  0  0  0  0  0  0  0
  -13.9458    6.1646    2.1733 H   0  0  0  0  0  0  0  0  0  0  0  0
  -11.4626    5.8252    2.5481 H   0  0  0  0  0  0  0  0  0  0  0  0
  -12.2287    6.5012    4.0128 H   0  0  0  0  0  0  0  0  0  0  0  0
   -9.1122    6.5126    2.5887 H   0  0  0  0  0  0  0  0  0  0  0  0
   -9.4552    6.7458    4.3136 H   0  0  0  0  0  0  0  0  0  0  0  0
  -18.9871    7.3363    2.5108 H   0  0  0  0  0  0  0  0  0  0  0  0
  -18.6784    8.9568    3.1714 H   0  0  0  0  0  0  0  0  0  0  0  0
  -15.6650    8.0576   -0.7918 H   0  0  0  0  0  0  0  0  0  0  0  0
  -17.4260    8.2688   -0.6818 H   0  0  0  0  0  0  0  0  0  0  0  0
  -17.9890   10.7562    2.4623 H   0  0  0  0  0  0  0  0  0  0  0  0
  -17.3284   10.2154    0.9038 H   0  0  0  0  0  0  0  0  0  0  0  0
  -13.5475   12.4010    1.9352 H   0  0  0  0  0  0  0  0  0  0  0  0
  -12.6982   10.8443    1.8195 H   0  0  0  0  0  0  0  0  0  0  0  0
   -5.0853    6.0480    4.3672 H   0  0  0  0  0  0  0  0  0  0  0  0
   -8.3651    9.0449    4.1918 H   0  0  0  0  0  0  0  0  0  0  0  0
   -7.5368   13.3161   -0.5506 H   0  0  0  0  0  0  0  0  0  0  0  0
   -9.7408   13.6458   -1.8827 H   0  0  0  0  0  0  0  0  0  0  0  0
  -10.0728   13.7206   -0.1687 H   0  0  0  0  0  0  0  0  0  0  0  0
   -6.8432   11.6699    3.1438 H   0  0  0  0  0  0  0  0  0  0  0  0
   -7.2431    8.0288    5.6406 H   0  0  0  0  0  0  0  0  0  0  0  0
   -6.4192    4.7341    3.0190 H   0  0  0  0  0  0  0  0  0  0  0  0
   -6.1624   12.0422   -1.5322 H   0  0  0  0  0  0  0  0  0  0  0  0
  1  2  2  0  0  0  0
  1  3  1  0  0  0  0
  1 48  1  0  0  0  0
  2  4  1  0  0  0  0
  2 49  1  0  0  0  0
  3  5  2  0  0  0  0
  3 50  1  0  0  0  0
  4  6  2  0  0  0  0
  4 51  1  0  0  0  0
  5  6  1  0  0  0  0
  5 52  1  0  0  0  0
  6 24  1  0  0  0  0
  7 11  1  0  0  0  0
  7 28  2  0  0  0  0
  7 37  1  0  0  0  0
  8 25  1  0  0  0  0
  8 27  2  0  0  0  0
  8 38  1  0  0  0  0
  9 24  1  0  0  0  0
  9 32  2  0  0  0  0
  9 39  1  0  0  0  0
 10 26  1  0  0  0  0
 10 33  2  0  0  0  0
 10 40  1  0  0  0  0
 11 12  1  0  0  0  0
 11 53  1  0  0  0  0
 11 54  1  0  0  0  0
 12 26  1  0  0  0  0
 12 55  1  0  0  0  0
 12 56  1  0  0  0  0
 13 20  1  0  0  0  0
 13 30  1  0  0  0  0
 13 57  1  0  0  0  0
 13 58  1  0  0  0  0
 14 21  1  0  0  0  0
 14 30  1  0  0  0  0
 14 59  1  0  0  0  0
 14 60  1  0  0  0  0
 15 22  1  0  0  0  0
 15 31  1  0  0  0  0
 15 61  1  0  0  0  0
 15 62  1  0  0  0  0
 16 23  1  0  0  0  0
 16 31  1  0  0  0  0
 16 63  1  0  0  0  0
 16 64  1  0  0  0  0
 17 18  1  0  0  0  0
 17 41  1  0  0  0  0
 17 65  1  0  0  0  0
 17 66  1  0  0  0  0
 18 43  1  0  0  0  0
 18 67  1  0  0  0  0
 18 68  1  0  0  0  0
 19 25  1  0  0  0  0
 19 43  1  0  0  0  0
 19 69  1  0  0  0  0
 19 70  1  0  0  0  0
 20 44  1  0  0  0  0
 20 71  1  0  0  0  0
 20 72  1  0  0  0  0
 21 45  1  0  0  0  0
 21 73  1  0  0  0  0
 21 74  1  0  0  0  0
 22 46  1  0  0  0  0
 22 75  1  0  0  0  0
 22 76  1  0  0  0  0
 23 47  1  0  0  0  0
 23 77  1  0  0  0  0
 23 78  1  0  0  0  0
 24 27  1  0  0  0  0
 24 79  1  1  0  0  0
 25 28  1  0  0  0  0
 25 80  1  1  0  0  0
 26 29  1  0  0  0  0
 26 81  1  1  0  0  0
 29 82  1  0  0  0  0
 29 83  1  0  0  0  0
 30 42  1  0  0  0  0
 31 42  1  0  0  0  0
 34 42  2  0  0  0  0
 35 43  2  0  0  0  0
 36 43  2  0  0  0  0
 37 84  1  0  0  0  0
 38 85  1  0  0  0  0
 39 86  1  0  0  0  0
 40 87  1  0  0  0  0
 41 42  1  0  0  0  0
M  END
$$$$
DrugBank_1849
 OpenBabel01151909533D

 78 82  0  0  1  0  0  0  0  0999 V2000
    5.2098    3.6544    0.9832 C   0  0  0  0  0  0  0  0  0  0  0  0
   -5.1762    0.5407    3.6402 C   0  0  0  0  0  0  0  0  0  0  0  0
    3.8756    4.0603    1.0088 C   0  0  0  0  0  0  0  0  0  0  0  0
    5.5526    2.4191    0.4335 C   0  0  0  0  0  0  0  0  0  0  0  0
   -3.8457    0.4986    4.0570 C   0  0  0  0  0  0  0  0  0  0  0  0
   -5.5098    0.1806    2.3346 C   0  0  0  0  0  0  0  0  0  0  0  0
    4.2571   -3.3634    2.4843 C   0  0  0  0  0  0  0  0  0  0  0  0
   -0.1768   -0.5628   -5.6253 C   0  0  0  0  0  0  0  0  0  0  0  0
    2.8841    3.2309    0.4848 C   0  0  0  0  0  0  0  0  0  0  0  0
    4.5611    1.5896   -0.0904 C   0  0  0  0  0  0  0  0  0  0  0  0
   -2.8488    0.0965    3.1681 C   0  0  0  0  0  0  0  0  0  0  0  0
   -4.5129   -0.2215    1.4457 C   0  0  0  0  0  0  0  0  0  0  0  0
    3.8290   -2.7273    1.3190 C   0  0  0  0  0  0  0  0  0  0  0  0
   -0.8575   -0.7180   -4.4178 C   0  0  0  0  0  0  0  0  0  0  0  0
    3.3423   -4.0572    3.2764 C   0  0  0  0  0  0  0  0  0  0  0  0
    0.3296    0.6861   -5.9849 C   0  0  0  0  0  0  0  0  0  0  0  0
    1.5714   -3.4788    1.7381 C   0  0  0  0  0  0  0  0  0  0  0  0
   -0.5256    1.6247   -3.9295 C   0  0  0  0  0  0  0  0  0  0  0  0
    3.2269    1.9955   -0.0648 C   0  0  0  0  0  0  0  0  0  0  0  0
   -3.1824   -0.2636    1.8624 C   0  0  0  0  0  0  0  0  0  0  0  0
    2.4862   -2.7850    0.9459 C   0  0  0  0  0  0  0  0  0  0  0  0
   -1.0319    0.3757   -3.5699 C   0  0  0  0  0  0  0  0  0  0  0  0
    1.9995   -4.1149    2.9034 C   0  0  0  0  0  0  0  0  0  0  0  0
    0.1552    1.7799   -5.1371 C   0  0  0  0  0  0  0  0  0  0  0  0
    0.6968    0.8677    1.4834 C   0  0  2  0  0  0  0  0  0  0  0  0
   -0.6512    1.4197    1.0023 C   0  0  2  0  0  0  0  0  0  0  0  0
    1.6151    0.1656    0.4536 C   0  0  2  0  0  0  0  0  0  0  0  0
   -1.5428    0.5001    0.1362 C   0  0  2  0  0  0  0  0  0  0  0  0
    0.0458   -0.9787   -1.1607 C   0  0  2  0  0  0  0  0  0  0  0  0
    2.1644    1.1056   -0.6265 C   0  0  0  0  0  0  0  0  0  0  0  0
   -2.1114   -0.6956    0.9065 C   0  0  0  0  0  0  0  0  0  0  0  0
    2.0258   -2.0996   -0.3080 C   0  0  0  0  0  0  0  0  0  0  0  0
   -1.7653    0.2084   -2.2706 C   0  0  0  0  0  0  0  0  0  0  0  0
    0.9999   -1.0847   -0.0347 N   0  0  0  0  0  0  0  0  0  0  0  0
   -0.8536    0.1918   -1.1249 N   0  0  0  0  0  0  0  0  0  0  0  0
    1.0746   -4.8168    3.7042 N   0  0  0  0  0  0  0  0  0  0  0  0
    0.6676    3.0427   -5.5006 N   0  0  0  0  0  0  0  0  0  0  0  0
    0.4782   -0.0406    2.5694 O   0  0  0  0  0  0  0  0  0  0  0  0
   -0.4008    2.6378    0.2906 O   0  0  0  0  0  0  0  0  0  0  0  0
   -0.7010   -2.1974   -1.3167 O   0  0  0  0  0  0  0  0  0  0  0  0
    5.9819    4.3010    1.3900 H   0  0  0  0  0  0  0  0  0  0  0  0
   -5.9525    0.8525    4.3329 H   0  0  0  0  0  0  0  0  0  0  0  0
    3.6087    5.0227    1.4357 H   0  0  0  0  0  0  0  0  0  0  0  0
    6.5914    2.1032    0.4124 H   0  0  0  0  0  0  0  0  0  0  0  0
   -3.5859    0.7779    5.0739 H   0  0  0  0  0  0  0  0  0  0  0  0
   -6.5456    0.2122    2.0101 H   0  0  0  0  0  0  0  0  0  0  0  0
    5.3028   -3.3185    2.7747 H   0  0  0  0  0  0  0  0  0  0  0  0
   -0.0409   -1.4147   -6.2855 H   0  0  0  0  0  0  0  0  0  0  0  0
    1.8471    3.5553    0.5093 H   0  0  0  0  0  0  0  0  0  0  0  0
    4.8375    0.6288   -0.5166 H   0  0  0  0  0  0  0  0  0  0  0  0
   -1.8148    0.0670    3.5016 H   0  0  0  0  0  0  0  0  0  0  0  0
   -4.7821   -0.5002    0.4303 H   0  0  0  0  0  0  0  0  0  0  0  0
    4.5489   -2.1890    0.7077 H   0  0  0  0  0  0  0  0  0  0  0  0
   -1.2488   -1.6950   -4.1456 H   0  0  0  0  0  0  0  0  0  0  0  0
    3.6867   -4.5495    4.1823 H   0  0  0  0  0  0  0  0  0  0  0  0
    0.8588    0.7959   -6.9281 H   0  0  0  0  0  0  0  0  0  0  0  0
    0.5248   -3.5230    1.4456 H   0  0  0  0  0  0  0  0  0  0  0  0
   -0.6622    2.4765   -3.2671 H   0  0  0  0  0  0  0  0  0  0  0  0
    1.2792    1.7370    1.9437 H   0  0  0  0  0  0  0  0  0  0  0  0
   -1.2274    1.7628    1.9285 H   0  0  0  0  0  0  0  0  0  0  0  0
    2.5294   -0.1616    1.0658 H   0  0  0  0  0  0  0  0  0  0  0  0
   -2.4192    1.1647   -0.1147 H   0  0  0  0  0  0  0  0  0  0  0  0
    0.5810   -0.8876   -2.0800 H   0  0  0  0  0  0  0  0  0  0  0  0
    1.3371    1.6886   -1.0233 H   0  0  0  0  0  0  0  0  0  0  0  0
    2.5539    0.4988   -1.4400 H   0  0  0  0  0  0  0  0  0  0  0  0
   -1.2981   -1.1883    1.4401 H   0  0  0  0  0  0  0  0  0  0  0  0
   -2.5055   -1.4186    0.1916 H   0  0  0  0  0  0  0  0  0  0  0  0
    2.8654   -1.6044   -0.8079 H   0  0  0  0  0  0  0  0  0  0  0  0
    1.6039   -2.8196   -1.0171 H   0  0  0  0  0  0  0  0  0  0  0  0
   -2.4789    1.0262   -2.1219 H   0  0  0  0  0  0  0  0  0  0  0  0
   -2.3351   -0.7267   -2.2585 H   0  0  0  0  0  0  0  0  0  0  0  0
    0.1073   -4.8110    3.4512 H   0  0  0  0  0  0  0  0  0  0  0  0
    1.3853   -5.2286    4.5608 H   0  0  0  0  0  0  0  0  0  0  0  0
    1.1946    3.1304   -6.3459 H   0  0  0  0  0  0  0  0  0  0  0  0
    0.5771    3.8076   -4.8629 H   0  0  0  0  0  0  0  0  0  0  0  0
    1.3543   -0.3531    2.8281 H   0  0  0  0  0  0  0  0  0  0  0  0
   -1.2666    2.9547    0.0044 H   0  0  0  0  0  0  0  0  0  0  0  0
   -1.1745   -2.3310   -0.4834 H   0  0  0  0  0  0  0  0  0  0  0  0
  1  3  2  0  0  0  0
  1  4  1  0  0  0  0
  1 41  1  0  0  0  0
  2  5  2  0  0  0  0
  2  6  1  0  0  0  0
  2 42  1  0  0  0  0
  3  9  1  0  0  0  0
  3 43  1  0  0  0  0
  4 10  2  0  0  0  0
  4 44  1  0  0  0  0
  5 11  1  0  0  0  0
  5 45  1  0  0  0  0
  6 12  2  0  0  0  0
  6 46  1  0  0  0  0
  7 13  2  0  0  0  0
  7 15  1  0  0  0  0
  7 47  1  0  0  0  0
  8 14  2  0  0  0  0
  8 16  1  0  0  0  0
  8 48  1  0  0  0  0
  9 19  2  0  0  0  0
  9 49  1  0  0  0  0
 10 19  1  0  0  0  0
 10 50  1  0  0  0  0
 11 20  2  0  0  0  0
 11 51  1  0  0  0  0
 12 20  1  0  0  0  0
 12 52  1  0  0  0  0
 13 21  1  0  0  0  0
 13 53  1  0  0  0  0
 14 22  1  0  0  0  0
 14 54  1  0  0  0  0
 15 23  2  0  0  0  0
 15 55  1  0  0  0  0
 16 24  2  0  0  0  0
 16 56  1  0  0  0  0
 17 21  2  0  0  0  0
 17 23  1  0  0  0  0
 17 57  1  0  0  0  0
 18 22  2  0  0  0  0
 18 24  1  0  0  0  0
 18 58  1  0  0  0  0
 19 30  1  0  0  0  0
 20 31  1  0  0  0  0
 21 32  1  0  0  0  0
 22 33  1  0  0  0  0
 23 36  1  0  0  0  0
 24 37  1  0  0  0  0
 25 26  1  6  0  0  0
 25 38  1  0  0  0  0
 25 59  1  0  0  0  0
 26 28  1  6  0  0  0
 26 39  1  0  0  0  0
 26 60  1  0  0  0  0
 27 25  1  1  0  0  0
 27 30  1  0  0  0  0
 27 34  1  0  0  0  0
 27 61  1  0  0  0  0
 28 31  1  0  0  0  0
 28 35  1  0  0  0  0
 28 62  1  6  0  0  0
 29 34  1  0  0  0  0
 29 35  1  0  0  0  0
 29 40  1  0  0  0  0
 29 63  1  6  0  0  0
 30 64  1  0  0  0  0
 30 65  1  0  0  0  0
 31 66  1  0  0  0  0
 31 67  1  0  0  0  0
 32 34  1  0  0  0  0
 32 68  1  0  0  0  0
 32 69  1  0  0  0  0
 33 35  1  0  0  0  0
 33 70  1  0  0  0  0
 33 71  1  0  0  0  0
 36 72  1  0  0  0  0
 36 73  1  0  0  0  0
 37 74  1  0  0  0  0
 37 75  1  0  0  0  0
 38 76  1  0  0  0  0
 39 77  1  0  0  0  0
 40 78  1  0  0  0  0
M  END
$$$$
DrugBank_1864
 OpenBabel01151909533D

 46 49  0  0  1  0  0  0  0  0999 V2000
   -6.1348   -1.4570   -4.2861 C   0  0  0  0  0  0  0  0  0  0  0  0
   -5.9482   -2.5572   -3.4493 C   0  0  0  0  0  0  0  0  0  0  0  0
   -5.0447   -0.6692   -4.6560 C   0  0  0  0  0  0  0  0  0  0  0  0
   -1.8205   -3.6328    2.6791 C   0  0  0  0  0  0  0  0  0  0  0  0
   -4.6715   -2.8697   -2.9824 C   0  0  0  0  0  0  0  0  0  0  0  0
   -3.7680   -0.9817   -4.1891 C   0  0  0  0  0  0  0  0  0  0  0  0
   -2.3781   -4.1642    3.8432 C   0  0  0  0  0  0  0  0  0  0  0  0
   -3.3840   -1.7789    2.7393 C   0  0  0  0  0  0  0  0  0  0  0  0
   -2.3179   -2.4445    2.1318 C   0  0  0  0  0  0  0  0  0  0  0  0
   -3.9346   -2.3015    3.9051 C   0  0  0  0  0  0  0  0  0  0  0  0
   -3.5814   -2.0820   -3.3523 C   0  0  0  0  0  0  0  0  0  0  0  0
   -3.4125   -3.4738    4.4648 C   0  0  0  0  0  0  0  0  0  0  0  0
   -1.3571   -0.4762   -1.5762 C   0  0  0  0  0  0  0  0  0  0  0  0
   -5.1019   -1.7005    4.6229 C   0  0  0  0  0  0  0  0  0  0  0  0
   -1.0742    0.0994   -0.1950 C   0  0  0  0  0  0  0  0  0  0  0  0
   -2.4356   -2.3756   -0.3779 C   0  0  0  0  0  0  0  0  0  0  0  0
   -1.7064   -1.8871    0.8667 C   0  0  1  0  0  0  0  0  0  0  0  0
   -3.5100   -4.8016    6.5985 C   0  0  0  0  0  0  0  0  0  0  0  0
   -2.2069   -2.4176   -2.8499 C   0  0  0  0  0  0  0  0  0  0  0  0
   -4.1629   -3.9360    5.5973 N   0  0  0  0  0  0  0  0  0  0  0  0
   -1.9108   -1.7537   -1.5898 N   0  0  0  0  0  0  0  0  0  0  0  0
   -1.0423    0.1634   -2.5813 O   0  0  0  0  0  0  0  0  0  0  0  0
   -4.3191   -1.8390    7.1294 O   0  0  0  0  0  0  0  0  0  0  0  0
   -6.4438   -3.0491    6.4784 O   0  0  0  0  0  0  0  0  0  0  0  0
   -1.7942   -0.4620    0.8809 O   0  0  0  0  0  0  0  0  0  0  0  0
   -5.1013   -2.5999    6.1735 S   0  0  0  0  0  0  0  0  0  0  0  0
   -7.1288   -1.2146   -4.6506 H   0  0  0  0  0  0  0  0  0  0  0  0
   -6.7967   -3.1714   -3.1620 H   0  0  0  0  0  0  0  0  0  0  0  0
   -5.1895    0.1868   -5.3084 H   0  0  0  0  0  0  0  0  0  0  0  0
   -1.0016   -4.1582    2.1937 H   0  0  0  0  0  0  0  0  0  0  0  0
   -4.5356   -3.7288   -2.3306 H   0  0  0  0  0  0  0  0  0  0  0  0
   -2.9246   -0.3622   -4.4825 H   0  0  0  0  0  0  0  0  0  0  0  0
   -1.9986   -5.1002    4.2392 H   0  0  0  0  0  0  0  0  0  0  0  0
   -3.7843   -0.8667    2.3058 H   0  0  0  0  0  0  0  0  0  0  0  0
   -4.9662   -0.6376    4.8322 H   0  0  0  0  0  0  0  0  0  0  0  0
   -6.0375   -1.9024    4.0966 H   0  0  0  0  0  0  0  0  0  0  0  0
   -0.0001   -0.0021   -0.0004 H   0  0  0  0  0  0  0  0  0  0  0  0
   -1.3081    1.1687   -0.2224 H   0  0  0  0  0  0  0  0  0  0  0  0
   -2.3503   -3.4650   -0.4690 H   0  0  0  0  0  0  0  0  0  0  0  0
   -3.5017   -2.1171   -0.3367 H   0  0  0  0  0  0  0  0  0  0  0  0
   -0.6383   -2.1878    0.8475 H   0  0  0  0  0  0  0  0  0  0  0  0
   -4.2181   -5.0608    7.3899 H   0  0  0  0  0  0  0  0  0  0  0  0
   -2.6562   -4.2852    7.0454 H   0  0  0  0  0  0  0  0  0  0  0  0
   -3.1554   -5.7227    6.1281 H   0  0  0  0  0  0  0  0  0  0  0  0
   -2.1057   -3.4972   -2.6943 H   0  0  0  0  0  0  0  0  0  0  0  0
   -1.4406   -2.1200   -3.5733 H   0  0  0  0  0  0  0  0  0  0  0  0
  1  2  2  0  0  0  0
  1  3  1  0  0  0  0
  1 27  1  0  0  0  0
  2  5  1  0  0  0  0
  2 28  1  0  0  0  0
  3  6  2  0  0  0  0
  3 29  1  0  0  0  0
  4  7  2  0  0  0  0
  4  9  1  0  0  0  0
  4 30  1  0  0  0  0
  5 11  2  0  0  0  0
  5 31  1  0  0  0  0
  6 11  1  0  0  0  0
  6 32  1  0  0  0  0
  7 12  1  0  0  0  0
  7 33  1  0  0  0  0
  8  9  2  0  0  0  0
  8 10  1  0  0  0  0
  8 34  1  0  0  0  0
  9 17  1  0  0  0  0
 10 12  2  0  0  0  0
 10 14  1  0  0  0  0
 11 19  1  0  0  0  0
 12 20  1  0  0  0  0
 13 15  1  0  0  0  0
 13 21  1  0  0  0  0
 13 22  2  0  0  0  0
 14 26  1  0  0  0  0
 14 35  1  0  0  0  0
 14 36  1  0  0  0  0
 15 25  1  0  0  0  0
 15 37  1  0  0  0  0
 15 38  1  0  0  0  0
 16 17  1  0  0  0  0
 16 21  1  0  0  0  0
 16 39  1  0  0  0  0
 16 40  1  0  0  0  0
 17 25  1  0  0  0  0
 17 41  1  6  0  0  0
 18 20  1  0  0  0  0
 18 42  1  0  0  0  0
 18 43  1  0  0  0  0
 18 44  1  0  0  0  0
 19 21  1  0  0  0  0
 19 45  1  0  0  0  0
 19 46  1  0  0  0  0
 20 26  1  0  0  0  0
 23 26  2  0  0  0  0
 24 26  2  0  0  0  0
M  END
$$$$
DrugBank_4492
 OpenBabel01151909533D

 51 54  0  0  1  0  0  0  0  0999 V2000
    0.5724   -3.9358    0.3480 C   0  0  0  0  0  0  0  0  0  0  0  0
    1.2864    2.2027    0.9485 C   0  0  0  0  0  0  0  0  0  0  0  0
    1.3406    0.7355    1.3689 C   0  0  0  0  0  0  0  0  0  0  0  0
   -1.1294   -0.8109   -1.2888 C   0  0  0  0  0  0  0  0  0  0  0  0
   -2.1915    3.6365   -1.3491 C   0  0  0  0  0  0  0  0  0  0  0  0
   -1.0331   -2.2780   -0.8295 C   0  0  0  0  0  0  0  0  0  0  0  0
   -2.0455    2.1352   -1.0919 C   0  0  0  0  0  0  0  0  0  0  0  0
    2.0010   -2.3142    1.3916 C   0  0  0  0  0  0  0  0  0  0  0  0
   -0.2185    4.0889    0.1762 C   0  0  0  0  0  0  0  0  0  0  0  0
    1.6174   -3.7988    1.4422 C   0  0  1  0  0  0  0  0  0  0  0  0
   -0.1159    2.5854    0.4621 C   0  0  1  0  0  0  0  0  0  0  0  0
    0.8566   -0.2095    0.2608 C   0  0  2  0  0  0  0  0  0  0  0  0
   -0.5604    0.2051   -0.2606 C   0  0  1  0  0  0  0  0  0  0  0  0
    0.7788   -1.6602    0.7463 C   0  0  1  0  0  0  0  0  0  0  0  0
   -1.6470    4.4796   -0.2007 C   0  0  1  0  0  0  0  0  0  0  0  0
    0.3875   -2.6229   -0.3944 C   0  0  1  0  0  0  0  0  0  0  0  0
   -0.5935    1.7044   -0.7377 C   0  0  1  0  0  0  0  0  0  0  0  0
    1.3464   -2.6643   -1.5989 C   0  0  0  0  0  0  0  0  0  0  0  0
    0.2945    1.9025   -1.9930 C   0  0  0  0  0  0  0  0  0  0  0  0
   -0.0179   -4.9727    0.0734 O   0  0  0  0  0  0  0  0  0  0  0  0
   -1.6829    5.8498   -0.5859 O   0  0  0  0  0  0  0  0  0  0  0  0
    0.7539   -4.2583    3.1126 Br  0  0  0  0  0  0  0  0  0  0  0  0
    1.5636    2.8239    1.8091 H   0  0  0  0  0  0  0  0  0  0  0  0
    2.0351    2.3984    0.1725 H   0  0  0  0  0  0  0  0  0  0  0  0
    2.3704    0.4877    1.6515 H   0  0  0  0  0  0  0  0  0  0  0  0
    0.7256    0.5980    2.2675 H   0  0  0  0  0  0  0  0  0  0  0  0
   -0.6130   -0.7086   -2.2482 H   0  0  0  0  0  0  0  0  0  0  0  0
   -2.1855   -0.5923   -1.4821 H   0  0  0  0  0  0  0  0  0  0  0  0
   -1.6948    3.9154   -2.2865 H   0  0  0  0  0  0  0  0  0  0  0  0
   -3.2497    3.8800   -1.5076 H   0  0  0  0  0  0  0  0  0  0  0  0
   -1.7345   -2.4447   -0.0015 H   0  0  0  0  0  0  0  0  0  0  0  0
   -1.3626   -2.9402   -1.6395 H   0  0  0  0  0  0  0  0  0  0  0  0
   -2.7191    1.8567   -0.2707 H   0  0  0  0  0  0  0  0  0  0  0  0
   -2.4007    1.6010   -1.9808 H   0  0  0  0  0  0  0  0  0  0  0  0
    2.2239   -1.8942    2.3778 H   0  0  0  0  0  0  0  0  0  0  0  0
    2.8892   -2.1703    0.7659 H   0  0  0  0  0  0  0  0  0  0  0  0
    0.0820    4.6611    1.0637 H   0  0  0  0  0  0  0  0  0  0  0  0
    0.4816    4.3964   -0.6097 H   0  0  0  0  0  0  0  0  0  0  0  0
    2.4694   -4.4615    1.2803 H   0  0  0  0  0  0  0  0  0  0  0  0
   -0.7990    2.3897    1.3037 H   0  0  0  0  0  0  0  0  0  0  0  0
    1.5837   -0.1498   -0.5556 H   0  0  0  0  0  0  0  0  0  0  0  0
   -1.2378    0.1433    0.6063 H   0  0  0  0  0  0  0  0  0  0  0  0
   -0.0131   -1.6865    1.5141 H   0  0  0  0  0  0  0  0  0  0  0  0
   -2.3019    4.3635    0.6713 H   0  0  0  0  0  0  0  0  0  0  0  0
    1.2500   -1.7430   -2.1629 H   0  0  0  0  0  0  0  0  0  0  0  0
    1.0901   -3.5085   -2.2294 H   0  0  0  0  0  0  0  0  0  0  0  0
    2.3645   -2.7699   -1.2403 H   0  0  0  0  0  0  0  0  0  0  0  0
    1.3055    1.6044   -1.7523 H   0  0  0  0  0  0  0  0  0  0  0  0
    0.2688    2.9462   -2.2738 H   0  0  0  0  0  0  0  0  0  0  0  0
   -0.0961    1.2895   -2.7934 H   0  0  0  0  0  0  0  0  0  0  0  0
   -1.3318    6.3579    0.1624 H   0  0  0  0  0  0  0  0  0  0  0  0
  1 10  1  0  0  0  0
  1 16  1  0  0  0  0
  1 20  2  0  0  0  0
  2  3  1  0  0  0  0
  2 11  1  0  0  0  0
  2 23  1  0  0  0  0
  2 24  1  0  0  0  0
  3 12  1  0  0  0  0
  3 25  1  0  0  0  0
  3 26  1  0  0  0  0
  4  6  1  0  0  0  0
  4 13  1  0  0  0  0
  4 27  1  0  0  0  0
  4 28  1  0  0  0  0
  5  7  1  0  0  0  0
  5 15  1  0  0  0  0
  5 29  1  0  0  0  0
  5 30  1  0  0  0  0
  6 16  1  0  0  0  0
  6 31  1  0  0  0  0
  6 32  1  0  0  0  0
  7 17  1  0  0  0  0
  7 33  1  0  0  0  0
  7 34  1  0  0  0  0
  8 10  1  0  0  0  0
  8 14  1  0  0  0  0
  8 35  1  0  0  0  0
  8 36  1  0  0  0  0
  9 11  1  0  0  0  0
  9 15  1  0  0  0  0
  9 37  1  0  0  0  0
  9 38  1  0  0  0  0
 10 22  1  0  0  0  0
 10 39  1  6  0  0  0
 11 17  1  6  0  0  0
 11 40  1  0  0  0  0
 12 13  1  6  0  0  0
 12 41  1  0  0  0  0
 13 17  1  6  0  0  0
 13 42  1  0  0  0  0
 14 12  1  6  0  0  0
 14 43  1  0  0  0  0
 15 21  1  0  0  0  0
 15 44  1  1  0  0  0
 16 14  1  1  0  0  0
 16 18  1  0  0  0  0
 17 19  1  6  0  0  0
 18 45  1  0  0  0  0
 18 46  1  0  0  0  0
 18 47  1  0  0  0  0
 19 48  1  0  0  0  0
 19 49  1  0  0  0  0
 19 50  1  0  0  0  0
 21 51  1  0  0  0  0
M  END
$$$$
DrugBank_4515
 OpenBabel01151909533D

 54 56  0  0  1  0  0  0  0  0999 V2000
    3.3561   -0.4742   -0.0242 C   0  0  0  0  0  0  0  0  0  0  0  0
    1.4769    1.5681   -0.0421 C   0  0  0  0  0  0  0  0  0  0  0  0
    3.7917    0.8633   -0.0614 C   0  0  0  0  0  0  0  0  0  0  0  0
    2.8439    1.9111   -0.0535 C   0  0  0  0  0  0  0  0  0  0  0  0
    1.9998   -0.7858    0.0011 C   0  0  0  0  0  0  0  0  0  0  0  0
    1.0602    0.2359   -0.0103 C   0  0  0  0  0  0  0  0  0  0  0  0
    6.4945    4.8500    1.5874 C   0  0  0  0  0  0  0  0  0  0  0  0
    5.2806    1.1062   -0.0513 C   0  0  0  0  0  0  0  0  0  0  0  0
    5.6996    2.5565   -0.2760 C   0  0  0  0  0  0  0  0  0  0  0  0
    2.8783    5.7683    0.7641 C   0  0  0  0  0  0  0  0  0  0  0  0
    2.3653    4.3320    0.6757 C   0  0  0  0  0  0  0  0  0  0  0  0
    4.2698    5.8357    1.3764 C   0  0  0  0  0  0  0  0  0  0  0  0
    4.7423    3.5066    0.4619 C   0  0  2  0  0  0  0  0  0  0  0  0
    3.2941    3.3886   -0.1379 C   0  0  1  0  0  0  0  0  0  0  0  0
    5.3051    4.9503    0.6520 C   0  0  2  0  0  0  0  0  0  0  0  0
    3.1851    3.7519   -1.6392 C   0  0  0  0  0  0  0  0  0  0  0  0
    5.8141    5.6407   -0.6211 C   0  0  0  0  0  0  0  0  0  0  0  0
    2.0856   -2.9401    1.3070 C   0  0  0  0  0  0  0  0  0  0  0  0
    2.0508   -2.9943   -1.2131 C   0  0  0  0  0  0  0  0  0  0  0  0
    1.5923   -2.2218    0.0375 C   0  0  0  0  0  0  0  0  0  0  0  0
    7.6289    5.2192    1.3224 O   0  0  0  0  0  0  0  0  0  0  0  0
   -1.3659    1.1531   -0.1153 O   0  0  0  0  0  0  0  0  0  0  0  0
   -0.8760   -1.1831   -0.9500 O   0  0  0  0  0  0  0  0  0  0  0  0
    6.1304    4.2890    2.7663 O   0  0  0  0  0  0  0  0  0  0  0  0
   -0.9585   -0.6899    1.5026 O   0  0  0  0  0  0  0  0  0  0  0  0
   -0.6557   -0.1103    0.0054 S   0  0  0  0  0  0  0  0  0  0  0  0
    4.0914   -1.2770   -0.0128 H   0  0  0  0  0  0  0  0  0  0  0  0
    0.7159    2.3431   -0.0736 H   0  0  0  0  0  0  0  0  0  0  0  0
    5.6607    0.7827    0.9268 H   0  0  0  0  0  0  0  0  0  0  0  0
    5.7634    0.4795   -0.8110 H   0  0  0  0  0  0  0  0  0  0  0  0
    6.7314    2.6719    0.0750 H   0  0  0  0  0  0  0  0  0  0  0  0
    5.7213    2.7750   -1.3486 H   0  0  0  0  0  0  0  0  0  0  0  0
    2.8747    6.2393   -0.2243 H   0  0  0  0  0  0  0  0  0  0  0  0
    2.1884    6.3554    1.3822 H   0  0  0  0  0  0  0  0  0  0  0  0
    2.2431    3.9390    1.6944 H   0  0  0  0  0  0  0  0  0  0  0  0
    1.3603    4.3702    0.2386 H   0  0  0  0  0  0  0  0  0  0  0  0
    4.6085    6.8797    1.3977 H   0  0  0  0  0  0  0  0  0  0  0  0
    4.1885    5.5316    2.4294 H   0  0  0  0  0  0  0  0  0  0  0  0
    4.6686    3.1060    1.4890 H   0  0  0  0  0  0  0  0  0  0  0  0
    3.4881    4.7820   -1.7708 H   0  0  0  0  0  0  0  0  0  0  0  0
    2.1586    3.6219   -1.9549 H   0  0  0  0  0  0  0  0  0  0  0  0
    3.8350    3.0968   -2.2037 H   0  0  0  0  0  0  0  0  0  0  0  0
    4.9973    5.7388   -1.3302 H   0  0  0  0  0  0  0  0  0  0  0  0
    6.6079    5.0450   -1.0624 H   0  0  0  0  0  0  0  0  0  0  0  0
    6.1966    6.6257   -0.3696 H   0  0  0  0  0  0  0  0  0  0  0  0
    3.1783   -2.9205    1.3831 H   0  0  0  0  0  0  0  0  0  0  0  0
    1.7704   -3.9891    1.3207 H   0  0  0  0  0  0  0  0  0  0  0  0
    1.6800   -2.4564    2.2027 H   0  0  0  0  0  0  0  0  0  0  0  0
    3.1427   -2.9667   -1.3014 H   0  0  0  0  0  0  0  0  0  0  0  0
    1.6296   -2.5613   -2.1269 H   0  0  0  0  0  0  0  0  0  0  0  0
    1.7455   -4.0456   -1.1726 H   0  0  0  0  0  0  0  0  0  0  0  0
    0.4889   -2.2966    0.0542 H   0  0  0  0  0  0  0  0  0  0  0  0
    6.8875    4.2134    3.3855 H   0  0  0  0  0  0  0  0  0  0  0  0
   -0.8400   -0.0426    2.2371 H   0  0  0  0  0  0  0  0  0  0  0  0
  1  3  2  0  0  0  0
  1  5  1  0  0  0  0
  1 27  1  0  0  0  0
  2  4  2  0  0  0  0
  2  6  1  0  0  0  0
  2 28  1  0  0  0  0
  3  4  1  0  0  0  0
  3  8  1  0  0  0  0
  4 14  1  0  0  0  0
  5  6  2  0  0  0  0
  5 20  1  0  0  0  0
  6 26  1  0  0  0  0
  7 15  1  0  0  0  0
  7 21  2  0  0  0  0
  7 24  1  0  0  0  0
  8  9  1  0  0  0  0
  8 29  1  0  0  0  0
  8 30  1  0  0  0  0
  9 13  1  0  0  0  0
  9 31  1  0  0  0  0
  9 32  1  0  0  0  0
 10 11  1  0  0  0  0
 10 12  1  0  0  0  0
 10 33  1  0  0  0  0
 10 34  1  0  0  0  0
 11 14  1  0  0  0  0
 11 35  1  0  0  0  0
 11 36  1  0  0  0  0
 12 15  1  0  0  0  0
 12 37  1  0  0  0  0
 12 38  1  0  0  0  0
 13 14  1  6  0  0  0
 13 39  1  0  0  0  0
 14 16  1  6  0  0  0
 15 13  1  6  0  0  0
 15 17  1  0  0  0  0
 16 40  1  0  0  0  0
 16 41  1  0  0  0  0
 16 42  1  0  0  0  0
 17 43  1  0  0  0  0
 17 44  1  0  0  0  0
 17 45  1  0  0  0  0
 18 20  1  0  0  0  0
 18 46  1  0  0  0  0
 18 47  1  0  0  0  0
 18 48  1  0  0  0  0
 19 20  1  0  0  0  0
 19 49  1  0  0  0  0
 19 50  1  0  0  0  0
 19 51  1  0  0  0  0
 20 52  1  0  0  0  0
 22 26  2  0  0  0  0
 23 26  2  0  0  0  0
 24 53  1  0  0  0  0
 25 26  1  0  0  0  0
 25 54  1  0  0  0  0
M  END
$$$$
DrugBank_6865
 OpenBabel01151909533D

 28 29  0  0  1  0  0  0  0  0999 V2000
   -0.4867   -1.0999    0.5441 C   0  0  0  0  0  0  0  0  0  0  0  0
    1.5058   -0.1717   -2.4761 C   0  0  0  0  0  0  0  0  0  0  0  0
   -0.4473    1.0467   -1.4169 C   0  0  0  0  0  0  0  0  0  0  0  0
   -0.0267    1.8612   -0.1562 C   0  0  0  0  0  0  0  0  0  0  0  0
    1.5332    0.0657    0.4925 C   0  0  0  0  0  0  0  0  0  0  0  0
    0.2957   -0.3005   -1.6035 C   0  0  2  0  0  0  0  0  0  0  0  0
    0.4628    0.9961    1.0343 C   0  0  2  0  0  0  0  0  0  0  0  0
    0.6830   -0.8224   -0.2990 N   0  0  0  0  0  0  0  0  0  0  0  0
   -0.5130   -0.0093    1.4284 N   0  0  0  0  0  0  0  0  0  0  0  0
    2.1909   -1.3507   -2.6517 N   0  0  0  0  0  0  0  0  0  0  0  0
   -1.3366   -1.9611    0.3747 O   0  0  0  0  0  0  0  0  0  0  0  0
    1.8285    0.8959   -2.9913 O   0  0  0  0  0  0  0  0  0  0  0  0
   -0.8087    1.5135    4.1515 O   0  0  0  0  0  0  0  0  0  0  0  0
   -1.0568   -0.9945    4.0721 O   0  0  0  0  0  0  0  0  0  0  0  0
   -3.0647    0.4661    4.2359 O   0  0  0  0  0  0  0  0  0  0  0  0
   -1.6701    0.3952    2.0777 O   0  0  0  0  0  0  0  0  0  0  0  0
   -1.5263    0.3309    3.7131 S   0  0  0  0  0  0  0  0  0  0  0  0
   -1.5172    0.8217   -1.3063 H   0  0  0  0  0  0  0  0  0  0  0  0
   -0.3643    1.6759   -2.3109 H   0  0  0  0  0  0  0  0  0  0  0  0
    0.7841    2.5428   -0.4433 H   0  0  0  0  0  0  0  0  0  0  0  0
   -0.8708    2.4867    0.1575 H   0  0  0  0  0  0  0  0  0  0  0  0
    2.3177    0.5490   -0.0950 H   0  0  0  0  0  0  0  0  0  0  0  0
    1.9946   -0.5278    1.2917 H   0  0  0  0  0  0  0  0  0  0  0  0
   -0.3731   -1.0247   -2.0837 H   0  0  0  0  0  0  0  0  0  0  0  0
    0.7831    1.5946    1.8907 H   0  0  0  0  0  0  0  0  0  0  0  0
    3.0242   -1.3482   -3.2307 H   0  0  0  0  0  0  0  0  0  0  0  0
    1.8966   -2.2235   -2.2255 H   0  0  0  0  0  0  0  0  0  0  0  0
   -3.6983   -0.1869    3.8561 H   0  0  0  0  0  0  0  0  0  0  0  0
  1  8  1  0  0  0  0
  1  9  1  0  0  0  0
  1 11  2  0  0  0  0
  2  6  1  0  0  0  0
  2 10  1  0  0  0  0
  2 12  2  0  0  0  0
  3  4  1  0  0  0  0
  3  6  1  0  0  0  0
  3 18  1  0  0  0  0
  3 19  1  0  0  0  0
  4  7  1  0  0  0  0
  4 20  1  0  0  0  0
  4 21  1  0  0  0  0
  5  7  1  0  0  0  0
  5  8  1  0  0  0  0
  5 22  1  0  0  0  0
  5 23  1  0  0  0  0
  6  8  1  0  0  0  0
  6 24  1  6  0  0  0
  7  9  1  0  0  0  0
  7 25  1  1  0  0  0
  9 16  1  0  0  0  0
 10 26  1  0  0  0  0
 10 27  1  0  0  0  0
 13 17  2  0  0  0  0
 14 17  2  0  0  0  0
 15 17  1  0  0  0  0
 15 28  1  0  0  0  0
 16 17  1  0  0  0  0
M  END
$$$$
DrugBank_6874
 OpenBabel01151909533D

 55 59  0  0  0  0  0  0  0  0999 V2000
    3.7141   -0.0664   -0.7975 C   0  0  0  0  0  0  0  0  0  0  0  0
    4.9179   -0.3005   -1.4594 C   0  0  0  0  0  0  0  0  0  0  0  0
    2.7912   -1.1007   -0.6373 C   0  0  0  0  0  0  0  0  0  0  0  0
    5.2036   -1.5699   -1.9635 C   0  0  0  0  0  0  0  0  0  0  0  0
   -0.5486   -3.2165   -2.3763 C   0  0  0  0  0  0  0  0  0  0  0  0
   -1.5368   -2.6136   -3.1544 C   0  0  0  0  0  0  0  0  0  0  0  0
   -0.8411   -1.5147   -0.6864 C   0  0  0  0  0  0  0  0  0  0  0  0
    3.0693   -2.3824   -1.1411 C   0  0  0  0  0  0  0  0  0  0  0  0
    4.2812   -2.6181   -1.8074 C   0  0  0  0  0  0  0  0  0  0  0  0
   -1.8293   -0.9118   -1.4646 C   0  0  0  0  0  0  0  0  0  0  0  0
   -0.2008   -2.6671   -1.1422 C   0  0  0  0  0  0  0  0  0  0  0  0
   -2.1771   -1.4613   -2.6987 C   0  0  0  0  0  0  0  0  0  0  0  0
    2.1910   -3.4528   -1.0131 C   0  0  0  0  0  0  0  0  0  0  0  0
    4.5080   -3.9034   -2.2870 C   0  0  0  0  0  0  0  0  0  0  0  0
   -2.5007    0.3015   -0.9825 C   0  0  0  0  0  0  0  0  0  0  0  0
    0.0501    5.1921   -1.1900 C   0  0  0  0  0  0  0  0  0  0  0  0
    1.3328    5.3049   -3.4224 C   0  0  0  0  0  0  0  0  0  0  0  0
    1.6350    6.5724   -2.6805 C   0  0  0  0  0  0  0  0  0  0  0  0
   -0.7384    1.7451   -2.1297 C   0  0  0  0  0  0  0  0  0  0  0  0
   -2.6188    2.7712   -0.9109 C   0  0  0  0  0  0  0  0  0  0  0  0
    0.2418    2.6634   -1.4039 C   0  0  0  0  0  0  0  0  0  0  0  0
   -1.6461    3.6956   -0.1846 C   0  0  0  0  0  0  0  0  0  0  0  0
    1.3577    5.3129   -1.9310 C   0  0  0  0  0  0  0  0  0  0  0  0
    0.8558   -3.3116   -0.3103 C   0  0  0  0  0  0  0  0  0  0  0  0
    2.4517   -4.6873   -1.4950 N   0  0  0  0  0  0  0  0  0  0  0  0
    3.6259   -4.9157   -2.1405 N   0  0  0  0  0  0  0  0  0  0  0  0
   -1.9450    1.5374   -1.3173 N   0  0  0  0  0  0  0  0  0  0  0  0
   -0.4269    3.9002   -0.9732 N   0  0  0  0  0  0  0  0  0  0  0  0
   -3.5111    0.1306   -0.3021 O   0  0  0  0  0  0  0  0  0  0  0  0
   -0.5297    6.2157   -0.8186 O   0  0  0  0  0  0  0  0  0  0  0  0
    5.6677   -4.2130   -2.9459 O   0  0  0  0  0  0  0  0  0  0  0  0
   -3.1251   -0.8898   -3.4548 F   0  0  0  0  0  0  0  0  0  0  0  0
    3.4937    0.9227   -0.4063 H   0  0  0  0  0  0  0  0  0  0  0  0
    5.6349    0.5059   -1.5826 H   0  0  0  0  0  0  0  0  0  0  0  0
    1.8615   -0.8850   -0.1168 H   0  0  0  0  0  0  0  0  0  0  0  0
    6.1504   -1.7246   -2.4756 H   0  0  0  0  0  0  0  0  0  0  0  0
   -0.0542   -4.1133   -2.7400 H   0  0  0  0  0  0  0  0  0  0  0  0
   -1.8069   -3.0410   -4.1155 H   0  0  0  0  0  0  0  0  0  0  0  0
   -0.5681   -1.0879    0.2763 H   0  0  0  0  0  0  0  0  0  0  0  0
    0.3840    5.2395   -3.9411 H   0  0  0  0  0  0  0  0  0  0  0  0
    2.1528    4.8065   -3.9248 H   0  0  0  0  0  0  0  0  0  0  0  0
    2.6584    6.9271   -2.6838 H   0  0  0  0  0  0  0  0  0  0  0  0
    0.8892    7.3576   -2.7015 H   0  0  0  0  0  0  0  0  0  0  0  0
   -1.0631    2.2033   -3.0717 H   0  0  0  0  0  0  0  0  0  0  0  0
   -0.2469    0.8003   -2.3738 H   0  0  0  0  0  0  0  0  0  0  0  0
   -3.4798    2.5526   -0.2715 H   0  0  0  0  0  0  0  0  0  0  0  0
   -2.9935    3.2498   -1.8236 H   0  0  0  0  0  0  0  0  0  0  0  0
    0.6197    2.1763   -0.4969 H   0  0  0  0  0  0  0  0  0  0  0  0
    1.0975    2.8671   -2.0502 H   0  0  0  0  0  0  0  0  0  0  0  0
   -2.1316    4.6509    0.0376 H   0  0  0  0  0  0  0  0  0  0  0  0
   -1.3366    3.2503    0.7686 H   0  0  0  0  0  0  0  0  0  0  0  0
    2.1738    4.8258   -1.4314 H   0  0  0  0  0  0  0  0  0  0  0  0
    1.0047   -2.7504    0.6290 H   0  0  0  0  0  0  0  0  0  0  0  0
    0.5254   -4.3086    0.0310 H   0  0  0  0  0  0  0  0  0  0  0  0
    5.6577   -5.1445   -3.2078 H   0  0  0  0  0  0  0  0  0  0  0  0
  1  2  2  0  0  0  0
  1  3  1  0  0  0  0
  1 33  1  0  0  0  0
  2  4  1  0  0  0  0
  2 34  1  0  0  0  0
  3  8  2  0  0  0  0
  3 35  1  0  0  0  0
  4  9  2  0  0  0  0
  4 36  1  0  0  0  0
  5  6  2  0  0  0  0
  5 11  1  0  0  0  0
  5 37  1  0  0  0  0
  6 12  1  0  0  0  0
  6 38  1  0  0  0  0
  7 10  1  0  0  0  0
  7 11  2  0  0  0  0
  7 39  1  0  0  0  0
  8  9  1  0  0  0  0
  8 13  1  0  0  0  0
  9 14  1  0  0  0  0
 10 12  2  0  0  0  0
 10 15  1  0  0  0  0
 11 24  1  0  0  0  0
 12 32  1  0  0  0  0
 13 24  1  0  0  0  0
 13 25  2  0  0  0  0
 14 26  2  0  0  0  0
 14 31  1  0  0  0  0
 15 27  1  0  0  0  0
 15 29  2  0  0  0  0
 16 23  1  0  0  0  0
 16 28  1  0  0  0  0
 16 30  2  0  0  0  0
 17 18  1  0  0  0  0
 17 23  1  0  0  0  0
 17 40  1  0  0  0  0
 17 41  1  0  0  0  0
 18 23  1  0  0  0  0
 18 42  1  0  0  0  0
 18 43  1  0  0  0  0
 19 21  1  0  0  0  0
 19 27  1  0  0  0  0
 19 44  1  0  0  0  0
 19 45  1  0  0  0  0
 20 22  1  0  0  0  0
 20 27  1  0  0  0  0
 20 46  1  0  0  0  0
 20 47  1  0  0  0  0
 21 28  1  0  0  0  0
 21 48  1  0  0  0  0
 21 49  1  0  0  0  0
 22 28  1  0  0  0  0
 22 50  1  0  0  0  0
 22 51  1  0  0  0  0
 23 52  1  0  0  0  0
 24 53  1  0  0  0  0
 24 54  1  0  0  0  0
 25 26  1  0  0  0  0
 31 55  1  0  0  0  0
M  END
$$$$
DrugBank_6875
 OpenBabel01151909533D

 67 70  0  0  1  0  0  0  0  0999 V2000
   -0.1116    0.8262    8.8092 C   0  0  0  0  0  0  0  0  0  0  0  0
   -0.0689    0.1766    7.5805 C   0  0  0  0  0  0  0  0  0  0  0  0
    1.0635    2.6468    7.8287 C   0  0  0  0  0  0  0  0  0  0  0  0
    0.4630    2.0851    8.9440 C   0  0  0  0  0  0  0  0  0  0  0  0
    1.5983    5.3012    2.3331 C   0  0  0  0  0  0  0  0  0  0  0  0
    2.7618    5.4109    3.0646 C   0  0  0  0  0  0  0  0  0  0  0  0
    0.5552    0.8238    6.5263 C   0  0  0  0  0  0  0  0  0  0  0  0
    2.2726    3.2267    2.2175 C   0  0  0  0  0  0  0  0  0  0  0  0
    2.2906    1.7841    1.8629 C   0  0  0  0  0  0  0  0  0  0  0  0
    0.0703   -1.0872    4.9907 C   0  0  0  0  0  0  0  0  0  0  0  0
    0.2800   -1.4598    3.5539 C   0  0  0  0  0  0  0  0  0  0  0  0
   -0.0374    0.1393   -2.9934 C   0  0  0  0  0  0  0  0  0  0  0  0
    0.7281    6.4792    2.0748 C   0  0  0  0  0  0  0  0  0  0  0  0
    3.2383    6.6727    3.7035 C   0  0  0  0  0  0  0  0  0  0  0  0
   -1.3786   -0.2713   -0.9493 C   0  0  0  0  0  0  0  0  0  0  0  0
   -1.4568   -0.1438    0.5698 C   0  0  0  0  0  0  0  0  0  0  0  0
    1.1487   -0.1602   -0.8342 C   0  0  0  0  0  0  0  0  0  0  0  0
    1.0940    7.6483    3.0180 C   0  0  0  0  0  0  0  0  0  0  0  0
   -0.1149    0.3793   -1.5144 C   0  0  1  0  0  0  0  0  0  0  0  0
   -0.1941   -0.6870    1.2475 C   0  0  1  0  0  0  0  0  0  0  0  0
    1.0887   -0.0424    0.6928 C   0  0  2  0  0  0  0  0  0  0  0  0
    2.8777    9.0575    3.8521 C   0  0  0  0  0  0  0  0  0  0  0  0
   -0.6709    0.9634   -5.2662 C   0  0  0  0  0  0  0  0  0  0  0  0
   -1.3740    2.2358   -3.2749 C   0  0  0  0  0  0  0  0  0  0  0  0
    1.1246    2.0464    6.6190 N   0  0  0  0  0  0  0  0  0  0  0  0
    1.3151    4.0479    1.8387 N   0  0  0  0  0  0  0  0  0  0  0  0
    2.5590    7.8450    3.0995 N   0  0  0  0  0  0  0  0  0  0  0  0
    0.5921    0.1556    5.2806 N   0  0  0  0  0  0  0  0  0  0  0  0
    1.2262    1.3403    1.0979 N   0  0  0  0  0  0  0  0  0  0  0  0
   -0.2818   -0.5542    2.6833 N   0  0  0  0  0  0  0  0  0  0  0  0
   -0.6689    1.0754   -3.8132 N   0  0  0  0  0  0  0  0  0  0  0  0
    3.2086    1.0774    2.2708 O   0  0  0  0  0  0  0  0  0  0  0  0
   -0.5254   -1.8936    5.6854 O   0  0  0  0  0  0  0  0  0  0  0  0
    0.9137   -2.4746    3.3123 O   0  0  0  0  0  0  0  0  0  0  0  0
    0.5669   -0.8519   -3.4115 O   0  0  0  0  0  0  0  0  0  0  0  0
    3.5408    3.9047    3.1653 S   0  0  0  0  0  0  0  0  0  0  0  0
    0.4300    2.9156   10.4441 Cl  0  0  0  0  0  0  0  0  0  0  0  0
   -0.5969    0.3420    9.6523 H   0  0  0  0  0  0  0  0  0  0  0  0
   -0.5156   -0.8058    7.4665 H   0  0  0  0  0  0  0  0  0  0  0  0
    1.5296    3.6266    7.8696 H   0  0  0  0  0  0  0  0  0  0  0  0
    0.8624    6.7926    1.0323 H   0  0  0  0  0  0  0  0  0  0  0  0
   -0.3255    6.2118    2.2099 H   0  0  0  0  0  0  0  0  0  0  0  0
    3.0352    6.6201    4.7812 H   0  0  0  0  0  0  0  0  0  0  0  0
    4.3211    6.7748    3.5647 H   0  0  0  0  0  0  0  0  0  0  0  0
   -1.4083   -1.3341   -1.2248 H   0  0  0  0  0  0  0  0  0  0  0  0
   -2.2681    0.1853   -1.4007 H   0  0  0  0  0  0  0  0  0  0  0  0
   -1.6085    0.9087    0.8419 H   0  0  0  0  0  0  0  0  0  0  0  0
   -2.3390   -0.6842    0.9343 H   0  0  0  0  0  0  0  0  0  0  0  0
    1.2845   -1.2174   -1.1006 H   0  0  0  0  0  0  0  0  0  0  0  0
    2.0300    0.3663   -1.2239 H   0  0  0  0  0  0  0  0  0  0  0  0
    0.6095    8.5546    2.6343 H   0  0  0  0  0  0  0  0  0  0  0  0
    0.6825    7.4593    4.0190 H   0  0  0  0  0  0  0  0  0  0  0  0
   -0.1719    1.4683   -1.3683 H   0  0  0  0  0  0  0  0  0  0  0  0
   -0.1437   -1.7667    1.0584 H   0  0  0  0  0  0  0  0  0  0  0  0
    1.9648   -0.5544    1.1197 H   0  0  0  0  0  0  0  0  0  0  0  0
    2.3761    9.9198    3.4052 H   0  0  0  0  0  0  0  0  0  0  0  0
    3.9566    9.2348    3.8441 H   0  0  0  0  0  0  0  0  0  0  0  0
    2.5468    8.9565    4.8893 H   0  0  0  0  0  0  0  0  0  0  0  0
   -1.5389    0.3873   -5.5974 H   0  0  0  0  0  0  0  0  0  0  0  0
    0.2372    0.4592   -5.6077 H   0  0  0  0  0  0  0  0  0  0  0  0
   -0.7129    1.9563   -5.7218 H   0  0  0  0  0  0  0  0  0  0  0  0
   -0.6879    3.0815   -3.1798 H   0  0  0  0  0  0  0  0  0  0  0  0
   -1.7856    2.0040   -2.2888 H   0  0  0  0  0  0  0  0  0  0  0  0
   -2.1944    2.5211   -3.9388 H   0  0  0  0  0  0  0  0  0  0  0  0
    1.0532    0.6444    4.5162 H   0  0  0  0  0  0  0  0  0  0  0  0
    0.4703    1.9677    0.8495 H   0  0  0  0  0  0  0  0  0  0  0  0
   -0.7832    0.2475    3.0537 H   0  0  0  0  0  0  0  0  0  0  0  0
  1  2  2  0  0  0  0
  1  4  1  0  0  0  0
  1 38  1  0  0  0  0
  2  7  1  0  0  0  0
  2 39  1  0  0  0  0
  3  4  2  0  0  0  0
  3 25  1  0  0  0  0
  3 40  1  0  0  0  0
  4 37  1  0  0  0  0
  5  6  2  0  0  0  0
  5 13  1  0  0  0  0
  5 26  1  0  0  0  0
  6 14  1  0  0  0  0
  6 36  1  0  0  0  0
  7 25  2  0  0  0  0
  7 28  1  0  0  0  0
  8  9  1  0  0  0  0
  8 26  2  0  0  0  0
  8 36  1  0  0  0  0
  9 29  1  0  0  0  0
  9 32  2  0  0  0  0
 10 11  1  0  0  0  0
 10 28  1  0  0  0  0
 10 33  2  0  0  0  0
 11 30  1  0  0  0  0
 11 34  2  0  0  0  0
 12 19  1  0  0  0  0
 12 31  1  0  0  0  0
 12 35  2  0  0  0  0
 13 18  1  0  0  0  0
 13 41  1  0  0  0  0
 13 42  1  0  0  0  0
 14 27  1  0  0  0  0
 14 43  1  0  0  0  0
 14 44  1  0  0  0  0
 15 16  1  0  0  0  0
 15 19  1  0  0  0  0
 15 45  1  0  0  0  0
 15 46  1  0  0  0  0
 16 20  1  0  0  0  0
 16 47  1  0  0  0  0
 16 48  1  0  0  0  0
 17 19  1  0  0  0  0
 17 21  1  0  0  0  0
 17 49  1  0  0  0  0
 17 50  1  0  0  0  0
 18 27  1  0  0  0  0
 18 51  1  0  0  0  0
 18 52  1  0  0  0  0
 19 53  1  1  0  0  0
 20 21  1  6  0  0  0
 20 30  1  0  0  0  0
 20 54  1  0  0  0  0
 21 29  1  0  0  0  0
 21 55  1  1  0  0  0
 22 27  1  0  0  0  0
 22 56  1  0  0  0  0
 22 57  1  0  0  0  0
 22 58  1  0  0  0  0
 23 31  1  0  0  0  0
 23 59  1  0  0  0  0
 23 60  1  0  0  0  0
 23 61  1  0  0  0  0
 24 31  1  0  0  0  0
 24 62  1  0  0  0  0
 24 63  1  0  0  0  0
 24 64  1  0  0  0  0
 28 65  1  0  0  0  0
 29 66  1  0  0  0  0
 30 67  1  0  0  0  0
M  END
$$$$
DrugBank_1897
 OpenBabel01151909533D

 16 15  0  0  1  0  0  0  0  0999 V2000
   -0.5537   -0.0100    1.3416 C   0  0  0  0  0  0  0  0  0  0  0  0
    0.1314    0.0297   -1.0767 C   0  0  0  0  0  0  0  0  0  0  0  0
    0.3927   -0.5741    0.3006 C   0  0  2  0  0  0  0  0  0  0  0  0
    0.1580   -2.0195    0.2701 N   0  0  0  0  0  0  0  0  0  0  0  0
   -1.6754   -0.4296    1.5904 O   0  0  0  0  0  0  0  0  0  0  0  0
    0.0688    2.6617   -0.5840 O   0  0  0  0  0  0  0  0  0  0  0  0
   -0.0012    1.0633    1.9628 O   0  0  0  0  0  0  0  0  0  0  0  0
    0.7425    1.7256   -2.8589 O   0  0  0  0  0  0  0  0  0  0  0  0
    0.9386    1.6542   -1.2649 S   0  0  2  0  0  0  0  0  0  0  0  0
    0.5454   -0.6049   -1.8678 H   0  0  0  0  0  0  0  0  0  0  0  0
   -0.9378    0.1700   -1.2697 H   0  0  0  0  0  0  0  0  0  0  0  0
    1.4267   -0.4103    0.6251 H   0  0  0  0  0  0  0  0  0  0  0  0
   -0.0852   -2.4690    1.1237 H   0  0  0  0  0  0  0  0  0  0  0  0
    0.4452   -2.5199   -0.5406 H   0  0  0  0  0  0  0  0  0  0  0  0
    0.9034    1.2512    1.6331 H   0  0  0  0  0  0  0  0  0  0  0  0
    0.9826    2.6238   -3.1869 H   0  0  0  0  0  0  0  0  0  0  0  0
  1  3  1  0  0  0  0
  1  5  2  0  0  0  0
  1  7  1  0  0  0  0
  2  3  1  0  0  0  0
  2  9  1  0  0  0  0
  2 10  1  0  0  0  0
  2 11  1  0  0  0  0
  3  4  1  0  0  0  0
  3 12  1  1  0  0  0
  4 13  1  0  0  0  0
  4 14  1  0  0  0  0
  7 15  1  0  0  0  0
  8  9  1  0  0  0  0
  8 16  1  0  0  0  0
  9  6  2  1  0  0  0
M  END
$$$$
DrugBank_1900
 OpenBabel01151909533D

 14 13  0  0  0  0  0  0  0  0999 V2000
    0.3083    0.7560    0.0214 C   0  0  0  0  0  0  0  0  0  0  0  0
    0.7436    1.2088    1.3857 C   0  0  0  0  0  0  0  0  0  0  0  0
   -0.2265   -0.6436   -0.0828 C   0  0  0  0  0  0  0  0  0  0  0  0
    0.4289    1.5554   -0.8947 O   0  0  0  0  0  0  0  0  0  0  0  0
    0.7071    0.4733    2.3512 O   0  0  0  0  0  0  0  0  0  0  0  0
    0.5104   -0.9508   -2.5822 O   0  0  0  0  0  0  0  0  0  0  0  0
   -1.9060   -0.3804   -2.0785 O   0  0  0  0  0  0  0  0  0  0  0  0
    1.2024    2.4654    1.3262 O   0  0  0  0  0  0  0  0  0  0  0  0
   -0.9879   -2.6374   -1.4864 O   0  0  0  0  0  0  0  0  0  0  0  0
   -0.6666   -1.0575   -1.7370 S   0  0  0  0  0  0  0  0  0  0  0  0
    0.5376   -1.3578    0.2335 H   0  0  0  0  0  0  0  0  0  0  0  0
   -1.1266   -0.7494    0.5268 H   0  0  0  0  0  0  0  0  0  0  0  0
    1.5372    2.7808    2.1926 H   0  0  0  0  0  0  0  0  0  0  0  0
   -0.2096   -3.1936   -1.2466 H   0  0  0  0  0  0  0  0  0  0  0  0
  1  2  1  0  0  0  0
  1  3  1  0  0  0  0
  1  4  2  0  0  0  0
  2  5  2  0  0  0  0
  2  8  1  0  0  0  0
  3 10  1  0  0  0  0
  3 11  1  0  0  0  0
  3 12  1  0  0  0  0
  6 10  2  0  0  0  0
  7 10  2  0  0  0  0
  8 13  1  0  0  0  0
  9 10  1  0  0  0  0
  9 14  1  0  0  0  0
M  END
$$$$
DrugBank_1905
 OpenBabel01151909533D

 43 45  0  0  1  0  0  0  0  0999 V2000
    1.1183   -0.5184    5.1349 C   0  0  0  0  0  0  0  0  0  0  0  0
   -2.1322   -0.1230    2.2690 C   0  0  0  0  0  0  0  0  0  0  0  0
   -1.2345   -0.9935    3.9951 C   0  0  0  0  0  0  0  0  0  0  0  0
   -0.3236   -0.0630    3.5209 C   0  0  0  0  0  0  0  0  0  0  0  0
   -0.8714   -1.7051    5.1342 C   0  0  0  0  0  0  0  0  0  0  0  0
    0.1385    2.0525   -0.6912 C   0  0  2  0  0  0  0  0  0  0  0  0
    0.3852    0.9698    0.3367 C   0  0  2  0  0  0  0  0  0  0  0  0
   -1.2921    2.4556   -0.3738 C   0  0  2  0  0  0  0  0  0  0  0  0
   -0.3571    1.5191    1.5483 C   0  0  2  0  0  0  0  0  0  0  0  0
   -6.9338    5.5480    1.5108 C   0  0  0  0  0  0  0  0  0  0  0  0
   -1.6307    3.8699   -0.8096 C   0  0  0  0  0  0  0  0  0  0  0  0
   -5.4821    5.6316    1.1823 C   0  0  0  0  0  0  0  0  0  0  0  0
    0.8782    0.2328    4.0381 N   0  0  0  0  0  0  0  0  0  0  0  0
    0.3297   -1.4580    5.7103 N   0  0  0  0  0  0  0  0  0  0  0  0
   -2.3567   -1.0206    3.2058 N   0  0  0  0  0  0  0  0  0  0  0  0
   -0.9134    0.4840    2.4171 N   0  0  0  0  0  0  0  0  0  0  0  0
   -1.7341   -2.6687    5.6840 N   0  0  0  0  0  0  0  0  0  0  0  0
   -5.2559    5.4947   -0.2702 N   0  0  0  0  0  0  0  0  0  0  0  0
   -3.6726    5.7453   -2.2771 O   0  0  0  0  0  0  0  0  0  0  0  0
   -2.9348    6.5910   -0.0320 O   0  0  0  0  0  0  0  0  0  0  0  0
   -1.4267    2.3479    1.0536 O   0  0  0  0  0  0  0  0  0  0  0  0
    0.2665    1.5431   -2.0049 O   0  0  0  0  0  0  0  0  0  0  0  0
    1.7661    0.8230    0.6176 O   0  0  0  0  0  0  0  0  0  0  0  0
   -2.9832    4.1397   -0.4788 O   0  0  0  0  0  0  0  0  0  0  0  0
   -3.6320    5.6006   -0.8329 S   0  0  0  0  0  0  0  0  0  0  0  0
    2.0720   -0.3463    5.6224 H   0  0  0  0  0  0  0  0  0  0  0  0
   -2.8087    0.1287    1.4637 H   0  0  0  0  0  0  0  0  0  0  0  0
    0.8479    2.8789   -0.5638 H   0  0  0  0  0  0  0  0  0  0  0  0
   -0.0037    0.0013    0.0010 H   0  0  0  0  0  0  0  0  0  0  0  0
   -2.0060    1.7611   -0.8327 H   0  0  0  0  0  0  0  0  0  0  0  0
    0.2955    2.1397    2.1996 H   0  0  0  0  0  0  0  0  0  0  0  0
   -7.4939    6.3466    1.0124 H   0  0  0  0  0  0  0  0  0  0  0  0
   -7.3461    4.5778    1.2130 H   0  0  0  0  0  0  0  0  0  0  0  0
   -7.0769    5.6593    2.5923 H   0  0  0  0  0  0  0  0  0  0  0  0
   -1.5011    3.9754   -1.8893 H   0  0  0  0  0  0  0  0  0  0  0  0
   -0.9888    4.5894   -0.2959 H   0  0  0  0  0  0  0  0  0  0  0  0
   -4.9289    4.8315    1.6831 H   0  0  0  0  0  0  0  0  0  0  0  0
   -5.0684    6.5950    1.4946 H   0  0  0  0  0  0  0  0  0  0  0  0
   -2.6392   -2.8096    5.2767 H   0  0  0  0  0  0  0  0  0  0  0  0
   -1.4740   -3.1365    6.5315 H   0  0  0  0  0  0  0  0  0  0  0  0
   -5.8289    4.7566   -0.7001 H   0  0  0  0  0  0  0  0  0  0  0  0
    0.0978    2.2810   -2.6159 H   0  0  0  0  0  0  0  0  0  0  0  0
    1.8486    0.1163    1.2803 H   0  0  0  0  0  0  0  0  0  0  0  0
  1 13  2  0  0  0  0
  1 14  1  0  0  0  0
  1 26  1  0  0  0  0
  2 15  2  0  0  0  0
  2 16  1  0  0  0  0
  2 27  1  0  0  0  0
  3  4  2  0  0  0  0
  3  5  1  0  0  0  0
  3 15  1  0  0  0  0
  4 13  1  0  0  0  0
  4 16  1  0  0  0  0
  5 14  2  0  0  0  0
  5 17  1  0  0  0  0
  6  7  1  1  0  0  0
  6 22  1  0  0  0  0
  6 28  1  0  0  0  0
  7  9  1  1  0  0  0
  7 23  1  0  0  0  0
  7 29  1  0  0  0  0
  8  6  1  6  0  0  0
  8 11  1  0  0  0  0
  8 21  1  0  0  0  0
  8 30  1  0  0  0  0
  9 16  1  0  0  0  0
  9 21  1  0  0  0  0
  9 31  1  1  0  0  0
 10 12  1  0  0  0  0
 10 32  1  0  0  0  0
 10 33  1  0  0  0  0
 10 34  1  0  0  0  0
 11 24  1  0  0  0  0
 11 35  1  0  0  0  0
 11 36  1  0  0  0  0
 12 18  1  0  0  0  0
 12 37  1  0  0  0  0
 12 38  1  0  0  0  0
 17 39  1  0  0  0  0
 17 40  1  0  0  0  0
 18 25  1  0  0  0  0
 18 41  1  0  0  0  0
 19 25  2  0  0  0  0
 20 25  2  0  0  0  0
 22 42  1  0  0  0  0
 23 43  1  0  0  0  0
 24 25  1  0  0  0  0
M  END
$$$$
DrugBank_4536
 OpenBabel01151909533D

 26 27  0  0  0  0  0  0  0  0999 V2000
    2.2275   -2.2247    1.5786 C   0  0  0  0  0  0  0  0  0  0  0  0
    1.9808   -0.9409   -0.4532 C   0  0  0  0  0  0  0  0  0  0  0  0
    7.1916   -3.4336   -0.6077 C   0  0  0  0  0  0  0  0  0  0  0  0
    5.5981   -4.5774   -2.0183 C   0  0  0  0  0  0  0  0  0  0  0  0
    0.9611   -1.8121    1.9930 C   0  0  0  0  0  0  0  0  0  0  0  0
    0.7144   -0.5283   -0.0387 C   0  0  0  0  0  0  0  0  0  0  0  0
    8.1876   -3.6459   -1.5608 C   0  0  0  0  0  0  0  0  0  0  0  0
    6.5941   -4.7896   -2.9714 C   0  0  0  0  0  0  0  0  0  0  0  0
    2.7373   -1.7890    0.3555 C   0  0  0  0  0  0  0  0  0  0  0  0
    5.8968   -3.8994   -0.8364 C   0  0  0  0  0  0  0  0  0  0  0  0
    0.2046   -0.9640    1.1844 C   0  0  0  0  0  0  0  0  0  0  0  0
    7.8889   -4.3239   -2.7427 C   0  0  0  0  0  0  0  0  0  0  0  0
    3.6615   -4.6840    0.1573 O   0  0  0  0  0  0  0  0  0  0  0  0
    5.3102   -3.4615    1.6443 O   0  0  0  0  0  0  0  0  0  0  0  0
    3.9732   -2.1909   -0.0488 O   0  0  0  0  0  0  0  0  0  0  0  0
    4.6349   -3.6305    0.3711 S   0  0  0  0  0  0  0  0  0  0  0  0
   -1.3572   -0.4537    1.6962 Cl  0  0  0  0  0  0  0  0  0  0  0  0
    9.1178   -4.5857   -3.9186 Cl  0  0  0  0  0  0  0  0  0  0  0  0
    2.8117   -2.8850    2.2134 H   0  0  0  0  0  0  0  0  0  0  0  0
    2.3727   -0.5978   -1.4067 H   0  0  0  0  0  0  0  0  0  0  0  0
    7.4351   -2.9042    0.3096 H   0  0  0  0  0  0  0  0  0  0  0  0
    4.5927   -4.9444   -2.2065 H   0  0  0  0  0  0  0  0  0  0  0  0
    0.5767   -2.1586    2.9492 H   0  0  0  0  0  0  0  0  0  0  0  0
    0.1362    0.1336   -0.6787 H   0  0  0  0  0  0  0  0  0  0  0  0
    9.1921   -3.2774   -1.3691 H   0  0  0  0  0  0  0  0  0  0  0  0
    6.3469   -5.3195   -3.8878 H   0  0  0  0  0  0  0  0  0  0  0  0
  1  5  2  0  0  0  0
  1  9  1  0  0  0  0
  1 19  1  0  0  0  0
  2  6  1  0  0  0  0
  2  9  2  0  0  0  0
  2 20  1  0  0  0  0
  3  7  2  0  0  0  0
  3 10  1  0  0  0  0
  3 21  1  0  0  0  0
  4  8  1  0  0  0  0
  4 10  2  0  0  0  0
  4 22  1  0  0  0  0
  5 11  1  0  0  0  0
  5 23  1  0  0  0  0
  6 11  2  0  0  0  0
  6 24  1  0  0  0  0
  7 12  1  0  0  0  0
  7 25  1  0  0  0  0
  8 12  2  0  0  0  0
  8 26  1  0  0  0  0
  9 15  1  0  0  0  0
 10 16  1  0  0  0  0
 11 17  1  0  0  0  0
 12 18  1  0  0  0  0
 13 16  2  0  0  0  0
 14 16  2  0  0  0  0
 15 16  1  0  0  0  0
M  END
$$$$
DrugBank_4545
 OpenBabel01151909533D

 76 83  0  0  1  0  0  0  0  0999 V2000
    5.0839   -1.1536   -0.7784 C   0  0  0  0  0  0  0  0  0  0  0  0
   -4.4507    1.9114    1.7953 C   0  0  0  0  0  0  0  0  0  0  0  0
    4.1849   -0.7370    0.2035 C   0  0  0  0  0  0  0  0  0  0  0  0
   -3.1829    1.5166    2.2272 C   0  0  0  0  0  0  0  0  0  0  0  0
    3.3127   -1.2447   -2.4308 C   0  0  0  0  0  0  0  0  0  0  0  0
   -3.9649    1.1659   -0.4516 C   0  0  0  0  0  0  0  0  0  0  0  0
    2.3531   -0.8303   -1.4747 C   0  0  0  0  0  0  0  0  0  0  0  0
   -2.6642    0.7571   -0.0643 C   0  0  0  0  0  0  0  0  0  0  0  0
    0.8957   -0.5742   -1.5895 C   0  0  0  0  0  0  0  0  0  0  0  0
   -1.5675    0.1951   -0.8638 C   0  0  0  0  0  0  0  0  0  0  0  0
   -0.0983   -0.5701   -2.5636 C   0  0  0  0  0  0  0  0  0  0  0  0
   -1.3813   -0.1464   -2.2066 C   0  0  0  0  0  0  0  0  0  0  0  0
    4.6567   -1.4037   -2.0755 C   0  0  0  0  0  0  0  0  0  0  0  0
   -4.8412    1.7328    0.4765 C   0  0  0  0  0  0  0  0  0  0  0  0
    2.8333   -0.5771   -0.1395 C   0  0  0  0  0  0  0  0  0  0  0  0
   -2.2913    0.9279    1.3104 C   0  0  0  0  0  0  0  0  0  0  0  0
    0.7166   -0.2391   -0.2092 C   0  0  0  0  0  0  0  0  0  0  0  0
   -0.6241    0.1124    0.2184 C   0  0  0  0  0  0  0  0  0  0  0  0
   -0.0883   -0.8591   -3.9929 C   0  0  0  0  0  0  0  0  0  0  0  0
    0.2584    1.0190    5.1376 C   0  0  0  0  0  0  0  0  0  0  0  0
   -2.2716   -0.1336   -3.4056 C   0  0  0  0  0  0  0  0  0  0  0  0
    1.9109    0.9436    3.2335 C   0  0  0  0  0  0  0  0  0  0  0  0
    0.3869    1.1532    3.6520 C   0  0  1  0  0  0  0  0  0  0  0  0
    1.6015    0.2264    1.9587 C   0  0  1  0  0  0  0  0  0  0  0  0
   -0.4062    0.0400    2.8313 C   0  0  1  0  0  0  0  0  0  0  0  0
   -1.3321   -0.8606    3.6536 C   0  0  0  0  0  0  0  0  0  0  0  0
    6.9807   -5.1523   -5.2057 C   0  0  0  0  0  0  0  0  0  0  0  0
   -8.2505    5.1104   -2.0168 C   0  0  0  0  0  0  0  0  0  0  0  0
   -2.1721    2.0000    7.3823 C   0  0  0  0  0  0  0  0  0  0  0  0
    5.6420   -1.8458   -3.1064 C   0  0  0  0  0  0  0  0  0  0  0  0
   -6.2031    2.1595    0.0406 C   0  0  0  0  0  0  0  0  0  0  0  0
    6.8349   -3.7288   -4.7025 C   0  0  0  0  0  0  0  0  0  0  0  0
   -7.9505    3.8570   -1.2168 C   0  0  0  0  0  0  0  0  0  0  0  0
    1.7901   -0.1779    0.6451 N   0  0  0  0  0  0  0  0  0  0  0  0
   -1.0108    0.4197    1.5314 N   0  0  0  0  0  0  0  0  0  0  0  0
   -1.3765   -0.5964   -4.4485 N   0  0  0  0  0  0  0  0  0  0  0  0
    0.8683   -1.2505   -4.6327 O   0  0  0  0  0  0  0  0  0  0  0  0
    0.9905    0.3229    5.8280 O   0  0  0  0  0  0  0  0  0  0  0  0
    0.6989   -0.7661    2.4527 O   0  0  0  0  0  0  0  0  0  0  0  0
   -0.7851    1.7839    5.5735 O   0  0  0  0  0  0  0  0  0  0  0  0
   -0.8554    1.6094    7.0195 O   0  0  0  0  0  0  0  0  0  0  0  0
    5.5274   -3.6257   -3.4594 S   0  0  0  0  0  0  0  0  0  0  0  0
   -6.1771    3.7153   -0.9005 S   0  0  0  0  0  0  0  0  0  0  0  0
    6.1312   -1.2790   -0.5136 H   0  0  0  0  0  0  0  0  0  0  0  0
   -5.1331    2.3627    2.5119 H   0  0  0  0  0  0  0  0  0  0  0  0
    4.5306   -0.5413    1.2143 H   0  0  0  0  0  0  0  0  0  0  0  0
   -2.8974    1.6738    3.2629 H   0  0  0  0  0  0  0  0  0  0  0  0
    3.0118   -1.4459   -3.4541 H   0  0  0  0  0  0  0  0  0  0  0  0
   -4.2801    1.0479   -1.4859 H   0  0  0  0  0  0  0  0  0  0  0  0
   -3.1042   -0.8348   -3.3134 H   0  0  0  0  0  0  0  0  0  0  0  0
   -2.6186    0.8717   -3.6562 H   0  0  0  0  0  0  0  0  0  0  0  0
    2.4429    1.8920    3.1095 H   0  0  0  0  0  0  0  0  0  0  0  0
    2.4540    0.3130    3.9450 H   0  0  0  0  0  0  0  0  0  0  0  0
    0.0344    2.1535    3.3732 H   0  0  0  0  0  0  0  0  0  0  0  0
    1.1507    1.1760    1.5863 H   0  0  0  0  0  0  0  0  0  0  0  0
   -1.8196   -1.5786    2.9983 H   0  0  0  0  0  0  0  0  0  0  0  0
   -2.0874   -0.2539    4.1475 H   0  0  0  0  0  0  0  0  0  0  0  0
   -0.7519   -1.3936    4.4032 H   0  0  0  0  0  0  0  0  0  0  0  0
    7.2284   -5.8429   -4.3924 H   0  0  0  0  0  0  0  0  0  0  0  0
    6.0647   -5.5026   -5.6934 H   0  0  0  0  0  0  0  0  0  0  0  0
    7.7891   -5.2060   -5.9425 H   0  0  0  0  0  0  0  0  0  0  0  0
   -7.9255    6.0125   -1.4875 H   0  0  0  0  0  0  0  0  0  0  0  0
   -7.7642    5.0877   -2.9979 H   0  0  0  0  0  0  0  0  0  0  0  0
   -9.3294    5.1961   -2.1842 H   0  0  0  0  0  0  0  0  0  0  0  0
   -2.2996    1.8947    8.4624 H   0  0  0  0  0  0  0  0  0  0  0  0
   -2.8969    1.3736    6.8562 H   0  0  0  0  0  0  0  0  0  0  0  0
   -2.3235    3.0446    7.0999 H   0  0  0  0  0  0  0  0  0  0  0  0
    5.4960   -1.2957   -4.0470 H   0  0  0  0  0  0  0  0  0  0  0  0
    6.6686   -1.6242   -2.7813 H   0  0  0  0  0  0  0  0  0  0  0  0
   -6.6745    1.3857   -0.5826 H   0  0  0  0  0  0  0  0  0  0  0  0
   -6.8644    2.2935    0.9090 H   0  0  0  0  0  0  0  0  0  0  0  0
    6.5879   -3.0573   -5.5304 H   0  0  0  0  0  0  0  0  0  0  0  0
    7.7734   -3.3868   -4.2558 H   0  0  0  0  0  0  0  0  0  0  0  0
   -8.2831    2.9694   -1.7637 H   0  0  0  0  0  0  0  0  0  0  0  0
   -8.4781    3.8836   -0.2587 H   0  0  0  0  0  0  0  0  0  0  0  0
   -1.6590   -0.7125   -5.4165 H   0  0  0  0  0  0  0  0  0  0  0  0
  1  3  2  0  0  0  0
  1 13  1  0  0  0  0
  1 44  1  0  0  0  0
  2  4  2  0  0  0  0
  2 14  1  0  0  0  0
  2 45  1  0  0  0  0
  3 15  1  0  0  0  0
  3 46  1  0  0  0  0
  4 16  1  0  0  0  0
  4 47  1  0  0  0  0
  5  7  1  0  0  0  0
  5 13  2  0  0  0  0
  5 48  1  0  0  0  0
  6  8  1  0  0  0  0
  6 14  2  0  0  0  0
  6 49  1  0  0  0  0
  7  9  1  0  0  0  0
  7 15  2  0  0  0  0
  8 10  1  0  0  0  0
  8 16  2  0  0  0  0
  9 11  2  0  0  0  0
  9 17  1  0  0  0  0
 10 12  2  0  0  0  0
 10 18  1  0  0  0  0
 11 12  1  0  0  0  0
 11 19  1  0  0  0  0
 12 21  1  0  0  0  0
 13 30  1  0  0  0  0
 14 31  1  0  0  0  0
 15 34  1  0  0  0  0
 16 35  1  0  0  0  0
 17 18  2  0  0  0  0
 17 34  1  0  0  0  0
 18 35  1  0  0  0  0
 19 36  1  0  0  0  0
 19 37  2  0  0  0  0
 20 23  1  0  0  0  0
 20 38  2  0  0  0  0
 20 40  1  0  0  0  0
 21 36  1  0  0  0  0
 21 50  1  0  0  0  0
 21 51  1  0  0  0  0
 22 23  1  0  0  0  0
 22 24  1  0  0  0  0
 22 52  1  0  0  0  0
 22 53  1  0  0  0  0
 23 25  1  6  0  0  0
 23 54  1  0  0  0  0
 24 34  1  0  0  0  0
 24 39  1  0  0  0  0
 24 55  1  6  0  0  0
 25 26  1  1  0  0  0
 25 35  1  0  0  0  0
 25 39  1  0  0  0  0
 26 56  1  0  0  0  0
 26 57  1  0  0  0  0
 26 58  1  0  0  0  0
 27 32  1  0  0  0  0
 27 59  1  0  0  0  0
 27 60  1  0  0  0  0
 27 61  1  0  0  0  0
 28 33  1  0  0  0  0
 28 62  1  0  0  0  0
 28 63  1  0  0  0  0
 28 64  1  0  0  0  0
 29 41  1  0  0  0  0
 29 65  1  0  0  0  0
 29 66  1  0  0  0  0
 29 67  1  0  0  0  0
 30 42  1  0  0  0  0
 30 68  1  0  0  0  0
 30 69  1  0  0  0  0
 31 43  1  0  0  0  0
 31 70  1  0  0  0  0
 31 71  1  0  0  0  0
 32 42  1  0  0  0  0
 32 72  1  0  0  0  0
 32 73  1  0  0  0  0
 33 43  1  0  0  0  0
 33 74  1  0  0  0  0
 33 75  1  0  0  0  0
 36 76  1  0  0  0  0
 40 41  1  0  0  0  0
M  END
$$$$
DrugBank_6895
 OpenBabel01151909533D

 28 29  0  0  0  0  0  0  0  0999 V2000
    1.9175   -1.0706   -0.1117 C   0  0  0  0  0  0  0  0  0  0  0  0
    2.8454    0.8740   10.8814 C   0  0  0  0  0  0  0  0  0  0  0  0
    1.5600   -2.2371    0.5643 C   0  0  0  0  0  0  0  0  0  0  0  0
    2.2217    0.0861    0.6061 C   0  0  0  0  0  0  0  0  0  0  0  0
    3.8932    1.5316   10.2372 C   0  0  0  0  0  0  0  0  0  0  0  0
    1.8743    0.2087   10.1329 C   0  0  0  0  0  0  0  0  0  0  0  0
    1.5067   -2.2470    1.9581 C   0  0  0  0  0  0  0  0  0  0  0  0
    2.1684    0.0763    1.9999 C   0  0  0  0  0  0  0  0  0  0  0  0
    3.9700    1.5242    8.8444 C   0  0  0  0  0  0  0  0  0  0  0  0
    1.9510    0.2013    8.7402 C   0  0  0  0  0  0  0  0  0  0  0  0
    1.8108   -1.0903    2.6759 C   0  0  0  0  0  0  0  0  0  0  0  0
    2.9989    0.8590    8.0959 C   0  0  0  0  0  0  0  0  0  0  0  0
    1.7551   -1.1006    4.1291 C   0  0  0  0  0  0  0  0  0  0  0  0
    3.0806    0.8512    6.6140 C   0  0  0  0  0  0  0  0  0  0  0  0
    0.9954   -1.8159    4.7950 O   0  0  0  0  0  0  0  0  0  0  0  0
    3.5774    1.7592    5.9659 O   0  0  0  0  0  0  0  0  0  0  0  0
    2.6586   -0.2235    4.6690 O   0  0  0  0  0  0  0  0  0  0  0  0
    2.5396   -0.2942    6.1207 O   0  0  0  0  0  0  0  0  0  0  0  0
    1.9590   -1.0630   -1.1969 H   0  0  0  0  0  0  0  0  0  0  0  0
    2.7856    0.8798   11.9658 H   0  0  0  0  0  0  0  0  0  0  0  0
    1.3230   -3.1376    0.0052 H   0  0  0  0  0  0  0  0  0  0  0  0
    2.5004    0.9943    0.0797 H   0  0  0  0  0  0  0  0  0  0  0  0
    4.6491    2.0497   10.8201 H   0  0  0  0  0  0  0  0  0  0  0  0
    1.0586   -0.3037   10.6346 H   0  0  0  0  0  0  0  0  0  0  0  0
    1.2269   -3.1615    2.4748 H   0  0  0  0  0  0  0  0  0  0  0  0
    2.4073    0.9835    2.5489 H   0  0  0  0  0  0  0  0  0  0  0  0
    4.7908    2.0399    8.3527 H   0  0  0  0  0  0  0  0  0  0  0  0
    1.1887   -0.3202    8.1671 H   0  0  0  0  0  0  0  0  0  0  0  0
  1  3  2  0  0  0  0
  1  4  1  0  0  0  0
  1 19  1  0  0  0  0
  2  5  2  0  0  0  0
  2  6  1  0  0  0  0
  2 20  1  0  0  0  0
  3  7  1  0  0  0  0
  3 21  1  0  0  0  0
  4  8  2  0  0  0  0
  4 22  1  0  0  0  0
  5  9  1  0  0  0  0
  5 23  1  0  0  0  0
  6 10  2  0  0  0  0
  6 24  1  0  0  0  0
  7 11  2  0  0  0  0
  7 25  1  0  0  0  0
  8 11  1  0  0  0  0
  8 26  1  0  0  0  0
  9 12  2  0  0  0  0
  9 27  1  0  0  0  0
 10 12  1  0  0  0  0
 10 28  1  0  0  0  0
 11 13  1  0  0  0  0
 12 14  1  0  0  0  0
 13 15  2  0  0  0  0
 13 17  1  0  0  0  0
 14 16  2  0  0  0  0
 14 18  1  0  0  0  0
 17 18  1  0  0  0  0
M  END
$$$$
DrugBank_1928
 OpenBabel01151909533D

 34 34  0  0  1  0  0  0  0  0999 V2000
   -3.2814    1.2267    1.6327 C   0  0  0  0  0  0  0  0  0  0  0  0
   -2.1120   -0.4270    0.1904 C   0  0  2  0  0  0  0  0  0  0  0  0
   -0.6400   -0.7819    0.4290 C   0  0  2  0  0  0  0  0  0  0  0  0
   -0.2858   -2.1309   -0.2005 C   0  0  2  0  0  0  0  0  0  0  0  0
   -0.7040   -2.1431   -1.6732 C   0  0  1  0  0  0  0  0  0  0  0  0
   -2.4728   -0.5852   -1.2940 C   0  0  1  0  0  0  0  0  0  0  0  0
   -3.3961    2.6859    1.9259 C   0  0  0  0  0  0  0  0  0  0  0  0
   -0.4424   -3.4810   -2.3542 C   0  0  0  0  0  0  0  0  0  0  0  0
   -2.3795    0.9262    0.6321 N   0  0  0  0  0  0  0  0  0  0  0  0
   -3.9597    0.4277    2.2677 O   0  0  0  0  0  0  0  0  0  0  0  0
    0.9005   -6.2494   -2.2744 O   0  0  0  0  0  0  0  0  0  0  0  0
    1.4731   -5.0289   -4.3978 O   0  0  0  0  0  0  0  0  0  0  0  0
   -2.1071   -1.8777   -1.7781 O   0  0  0  0  0  0  0  0  0  0  0  0
   -0.3793   -0.8181    1.8300 O   0  0  0  0  0  0  0  0  0  0  0  0
   -0.9743   -3.1599    0.5133 O   0  0  0  0  0  0  0  0  0  0  0  0
   -3.8828   -0.4109   -1.4300 O   0  0  0  0  0  0  0  0  0  0  0  0
    3.1066   -5.1234   -2.5149 O   0  0  0  0  0  0  0  0  0  0  0  0
    0.9462   -3.7541   -2.2965 O   0  0  0  0  0  0  0  0  0  0  0  0
    1.5349   -5.1340   -2.9519 S   0  0  0  0  0  0  0  0  0  0  0  0
   -2.7561   -1.0659    0.8071 H   0  0  0  0  0  0  0  0  0  0  0  0
   -0.0009   -0.0002   -0.0020 H   0  0  0  0  0  0  0  0  0  0  0  0
    0.7878   -2.3219   -0.0891 H   0  0  0  0  0  0  0  0  0  0  0  0
   -0.1575   -1.3658   -2.2227 H   0  0  0  0  0  0  0  0  0  0  0  0
   -1.9791    0.1847   -1.9012 H   0  0  0  0  0  0  0  0  0  0  0  0
   -4.1703    3.1779    1.3155 H   0  0  0  0  0  0  0  0  0  0  0  0
   -3.6809    2.8835    2.9718 H   0  0  0  0  0  0  0  0  0  0  0  0
   -2.4791    3.2736    1.7595 H   0  0  0  0  0  0  0  0  0  0  0  0
   -0.7568   -3.4370   -3.3976 H   0  0  0  0  0  0  0  0  0  0  0  0
   -0.9863   -4.2747   -1.8407 H   0  0  0  0  0  0  0  0  0  0  0  0
   -1.8810    1.6882    0.1855 H   0  0  0  0  0  0  0  0  0  0  0  0
   -0.5813    0.0668    2.1711 H   0  0  0  0  0  0  0  0  0  0  0  0
   -0.6687   -3.1061    1.4309 H   0  0  0  0  0  0  0  0  0  0  0  0
   -4.0823   -0.5155   -2.3727 H   0  0  0  0  0  0  0  0  0  0  0  0
    3.6158   -4.3192   -2.7703 H   0  0  0  0  0  0  0  0  0  0  0  0
  1  7  1  0  0  0  0
  1  9  1  0  0  0  0
  1 10  2  0  0  0  0
  2  3  1  1  0  0  0
  2  9  1  0  0  0  0
  2 20  1  0  0  0  0
  3  4  1  6  0  0  0
  3 14  1  0  0  0  0
  3 21  1  0  0  0  0
  4  5  1  6  0  0  0
  4 15  1  0  0  0  0
  4 22  1  0  0  0  0
  5  8  1  0  0  0  0
  5 13  1  0  0  0  0
  5 23  1  6  0  0  0
  6  2  1  1  0  0  0
  6 13  1  0  0  0  0
  6 16  1  0  0  0  0
  6 24  1  0  0  0  0
  7 25  1  0  0  0  0
  7 26  1  0  0  0  0
  7 27  1  0  0  0  0
  8 18  1  0  0  0  0
  8 28  1  0  0  0  0
  8 29  1  0  0  0  0
  9 30  1  0  0  0  0
 11 19  2  0  0  0  0
 12 19  2  0  0  0  0
 14 31  1  0  0  0  0
 15 32  1  0  0  0  0
 16 33  1  0  0  0  0
 17 19  1  0  0  0  0
 17 34  1  0  0  0  0
 18 19  1  0  0  0  0
M  END
$$$$
DrugBank_6928
 OpenBabel01151909533D

140143  0  0  1  0  0  0  0  0999 V2000
    7.0026  -10.0338    8.2071 C   0  0  0  0  0  0  0  0  0  0  0  0
    6.7142   -4.0291    0.4893 C   0  0  0  0  0  0  0  0  0  0  0  0
    6.8179  -11.4093    8.3466 C   0  0  0  0  0  0  0  0  0  0  0  0
    6.1365   -9.2917    7.4040 C   0  0  0  0  0  0  0  0  0  0  0  0
    5.4662   -3.9645    1.1058 C   0  0  0  0  0  0  0  0  0  0  0  0
    7.8900   -4.0072    1.2482 C   0  0  0  0  0  0  0  0  0  0  0  0
    5.7671  -12.0428    7.6830 C   0  0  0  0  0  0  0  0  0  0  0  0
    5.0858   -9.9251    6.7404 C   0  0  0  0  0  0  0  0  0  0  0  0
   14.3411  -12.7806    7.6062 C   0  0  0  0  0  0  0  0  0  0  0  0
   14.5036  -13.6104    9.8694 C   0  0  0  0  0  0  0  0  0  0  0  0
    5.3527   -3.8763    2.4962 C   0  0  0  0  0  0  0  0  0  0  0  0
   14.2431  -14.0892    7.1334 C   0  0  0  0  0  0  0  0  0  0  0  0
   14.4056  -14.9190    9.3966 C   0  0  0  0  0  0  0  0  0  0  0  0
    8.0668   -3.7856    4.8924 C   0  0  0  0  0  0  0  0  0  0  0  0
    7.8006   -3.9186    2.6517 C   0  0  0  0  0  0  0  0  0  0  0  0
    4.9011  -11.3007    6.8799 C   0  0  0  0  0  0  0  0  0  0  0  0
   14.4714  -12.5412    8.9742 C   0  0  0  0  0  0  0  0  0  0  0  0
    8.7563   -3.8739    3.7051 C   0  0  0  0  0  0  0  0  0  0  0  0
    6.5366   -3.8553    3.2420 C   0  0  0  0  0  0  0  0  0  0  0  0
   14.2754  -15.1584    8.0286 C   0  0  0  0  0  0  0  0  0  0  0  0
   12.9734   -5.3549    5.6977 C   0  0  0  0  0  0  0  0  0  0  0  0
    2.9665  -13.1339    4.0792 C   0  0  0  0  0  0  0  0  0  0  0  0
   15.6938   -6.7620    6.8280 C   0  0  0  0  0  0  0  0  0  0  0  0
   16.0615   -9.1068    9.6298 C   0  0  0  0  0  0  0  0  0  0  0  0
   10.7938   -6.3655    3.5618 C   0  0  0  0  0  0  0  0  0  0  0  0
   18.0824  -11.3162   10.7776 C   0  0  0  0  0  0  0  0  0  0  0  0
    5.8576  -11.3900    3.3171 C   0  0  0  0  0  0  0  0  0  0  0  0
    7.8558   -8.5515    3.2910 C   0  0  0  0  0  0  0  0  0  0  0  0
   20.1729  -10.0293   12.4802 C   0  0  0  0  0  0  0  0  0  0  0  0
    5.5352   -9.0244    0.3272 C   0  0  0  0  0  0  0  0  0  0  0  0
   20.9406   -7.6454    8.6825 C   0  0  0  0  0  0  0  0  0  0  0  0
    9.3399  -12.4057    5.8043 C   0  0  0  0  0  0  0  0  0  0  0  0
    3.7641  -11.9855    6.1614 C   0  0  0  0  0  0  0  0  0  0  0  0
   14.5768  -11.1253    9.4860 C   0  0  0  0  0  0  0  0  0  0  0  0
   10.2578   -3.9135    3.5588 C   0  0  0  0  0  0  0  0  0  0  0  0
   14.4250   -4.9485    5.7008 C   0  0  0  0  0  0  0  0  0  0  0  0
   19.9960  -11.5251   12.3896 C   0  0  0  0  0  0  0  0  0  0  0  0
    5.7439  -10.3378    1.0403 C   0  0  0  0  0  0  0  0  0  0  0  0
   17.8019   -6.6296    8.2554 C   0  0  0  0  0  0  0  0  0  0  0  0
   10.0322   -9.5437    4.1728 C   0  0  0  0  0  0  0  0  0  0  0  0
   18.7081   -7.1917    7.1574 C   0  0  0  0  0  0  0  0  0  0  0  0
    9.5140   -9.6768    5.6068 C   0  0  0  0  0  0  0  0  0  0  0  0
    4.1575  -12.4804    4.7649 C   0  0  2  0  0  0  0  0  0  0  0  0
   16.3479   -7.1122    8.1610 C   0  0  2  0  0  0  0  0  0  0  0  0
   16.0253  -10.6295    9.5642 C   0  0  2  0  0  0  0  0  0  0  0  0
   10.9000   -5.0621    4.3454 C   0  0  2  0  0  0  0  0  0  0  0  0
   18.5416  -11.8947   12.1100 C   0  0  2  0  0  0  0  0  0  0  0  0
    6.0958  -10.1203    2.5096 C   0  0  2  0  0  0  0  0  0  0  0  0
    9.3717   -8.4060    3.3823 C   0  0  2  0  0  0  0  0  0  0  0  0
    6.7287   -3.7753    4.6029 N   0  0  0  0  0  0  0  0  0  0  0  0
    2.9414  -14.5030    4.2430 N   0  0  0  0  0  0  0  0  0  0  0  0
   18.3488  -13.3213   12.0602 N   0  0  0  0  0  0  0  0  0  0  0  0
   15.0845   -5.5157    6.8535 N   0  0  0  0  0  0  0  0  0  0  0  0
   12.3033   -4.8305    4.6018 N   0  0  0  0  0  0  0  0  0  0  0  0
    4.6028  -11.4049    3.9099 N   0  0  0  0  0  0  0  0  0  0  0  0
   16.2319   -8.5316    8.3751 N   0  0  0  0  0  0  0  0  0  0  0  0
   16.7071  -11.1230   10.7342 N   0  0  0  0  0  0  0  0  0  0  0  0
    7.4782   -9.7401    2.6828 N   0  0  0  0  0  0  0  0  0  0  0  0
    9.6814   -7.1070    3.9351 N   0  0  0  0  0  0  0  0  0  0  0  0
   12.4683   -6.0637    6.5643 O   0  0  0  0  0  0  0  0  0  0  0  0
    2.1390  -12.5174    3.4121 O   0  0  0  0  0  0  0  0  0  0  0  0
   15.7380   -7.5010    5.8465 O   0  0  0  0  0  0  0  0  0  0  0  0
   15.9911   -8.4807   10.6852 O   0  0  0  0  0  0  0  0  0  0  0  0
   11.6306   -6.7183    2.7335 O   0  0  0  0  0  0  0  0  0  0  0  0
   18.8509  -11.0926    9.8444 O   0  0  0  0  0  0  0  0  0  0  0  0
    6.7077  -12.2679    3.4505 O   0  0  0  0  0  0  0  0  0  0  0  0
    7.0752   -7.7133    3.7375 O   0  0  0  0  0  0  0  0  0  0  0  0
   19.3117   -9.2620   12.8901 O   0  0  0  0  0  0  0  0  0  0  0  0
    6.4216   -8.4144   -0.2564 O   0  0  0  0  0  0  0  0  0  0  0  0
   16.6728  -16.7862    7.7024 O   0  0  0  0  0  0  0  0  0  0  0  0
   15.1147  -18.1733    9.1037 O   0  0  0  0  0  0  0  0  0  0  0  0
   21.3887   -9.6208   12.0399 O   0  0  0  0  0  0  0  0  0  0  0  0
    4.2572   -8.5801    0.4169 O   0  0  0  0  0  0  0  0  0  0  0  0
   15.2870  -18.5784    6.6560 O   0  0  0  0  0  0  0  0  0  0  0  0
   14.1785  -16.4352    7.5671 O   0  0  0  0  0  0  0  0  0  0  0  0
   20.4018   -6.5587    7.3430 S   0  0  0  0  0  0  0  0  0  0  0  0
   10.3425  -11.0522    6.4588 S   0  0  0  0  0  0  0  0  0  0  0  0
   15.4102  -17.4841    7.8610 S   0  0  0  0  0  0  0  0  0  0  0  0
    7.8200   -9.5405    8.7249 H   0  0  0  0  0  0  0  0  0  0  0  0
    6.7768   -4.0978   -0.5934 H   0  0  0  0  0  0  0  0  0  0  0  0
    7.4915  -11.9871    8.9727 H   0  0  0  0  0  0  0  0  0  0  0  0
    6.2794   -8.2206    7.2960 H   0  0  0  0  0  0  0  0  0  0  0  0
    4.5659   -3.9828    0.4970 H   0  0  0  0  0  0  0  0  0  0  0  0
    8.8553   -4.0593    0.7527 H   0  0  0  0  0  0  0  0  0  0  0  0
    5.6310  -13.1149    7.7974 H   0  0  0  0  0  0  0  0  0  0  0  0
    4.4161   -9.3389    6.1167 H   0  0  0  0  0  0  0  0  0  0  0  0
   14.3151  -11.9537    6.9016 H   0  0  0  0  0  0  0  0  0  0  0  0
   14.6050  -13.4333   10.9370 H   0  0  0  0  0  0  0  0  0  0  0  0
    4.3808   -3.8249    2.9751 H   0  0  0  0  0  0  0  0  0  0  0  0
   14.1415  -14.2693    6.0664 H   0  0  0  0  0  0  0  0  0  0  0  0
   14.4310  -15.7475   10.0989 H   0  0  0  0  0  0  0  0  0  0  0  0
    8.4071   -3.7306    5.9173 H   0  0  0  0  0  0  0  0  0  0  0  0
   21.9744   -7.4174    8.9532 H   0  0  0  0  0  0  0  0  0  0  0  0
   20.8778   -8.6883    8.3622 H   0  0  0  0  0  0  0  0  0  0  0  0
   20.3019   -7.5010    9.5572 H   0  0  0  0  0  0  0  0  0  0  0  0
    9.6900  -13.3578    6.2106 H   0  0  0  0  0  0  0  0  0  0  0  0
    9.4187  -12.4326    4.7147 H   0  0  0  0  0  0  0  0  0  0  0  0
    8.2935  -12.2610    6.0835 H   0  0  0  0  0  0  0  0  0  0  0  0
    3.3921  -12.8210    6.7700 H   0  0  0  0  0  0  0  0  0  0  0  0
    2.9244  -11.2808    6.0960 H   0  0  0  0  0  0  0  0  0  0  0  0
   13.9799  -10.4573    8.8503 H   0  0  0  0  0  0  0  0  0  0  0  0
   14.1023  -11.0811   10.4752 H   0  0  0  0  0  0  0  0  0  0  0  0
   10.5236   -3.9855    2.4954 H   0  0  0  0  0  0  0  0  0  0  0  0
   10.6613   -2.9481    3.8916 H   0  0  0  0  0  0  0  0  0  0  0  0
   14.9117   -5.3135    4.7915 H   0  0  0  0  0  0  0  0  0  0  0  0
   14.5048   -3.8583    5.7417 H   0  0  0  0  0  0  0  0  0  0  0  0
   20.3325  -11.9392   13.3484 H   0  0  0  0  0  0  0  0  0  0  0  0
   20.6821  -11.9296   11.6357 H   0  0  0  0  0  0  0  0  0  0  0  0
    6.5536  -10.8564    0.5117 H   0  0  0  0  0  0  0  0  0  0  0  0
    4.8558  -10.9686    0.9125 H   0  0  0  0  0  0  0  0  0  0  0  0
   18.1989   -6.9184    9.2378 H   0  0  0  0  0  0  0  0  0  0  0  0
   17.8182   -5.5329    8.2145 H   0  0  0  0  0  0  0  0  0  0  0  0
   11.1160   -9.3670    4.1927 H   0  0  0  0  0  0  0  0  0  0  0  0
    9.8729  -10.4895    3.6392 H   0  0  0  0  0  0  0  0  0  0  0  0
   18.3486   -6.9018    6.1656 H   0  0  0  0  0  0  0  0  0  0  0  0
   18.7481   -8.2841    7.2004 H   0  0  0  0  0  0  0  0  0  0  0  0
    8.4380   -9.8748    5.6182 H   0  0  0  0  0  0  0  0  0  0  0  0
    9.6992   -8.7630    6.1791 H   0  0  0  0  0  0  0  0  0  0  0  0
    4.9810  -13.2022    4.8166 H   0  0  0  0  0  0  0  0  0  0  0  0
   15.7628   -6.6405    8.9598 H   0  0  0  0  0  0  0  0  0  0  0  0
   16.6079  -10.9654    8.6983 H   0  0  0  0  0  0  0  0  0  0  0  0
   10.4209   -5.1911    5.3231 H   0  0  0  0  0  0  0  0  0  0  0  0
   17.8833  -11.5234   12.9046 H   0  0  0  0  0  0  0  0  0  0  0  0
    5.4977   -9.3080    2.9396 H   0  0  0  0  0  0  0  0  0  0  0  0
    9.7736   -8.4002    2.3618 H   0  0  0  0  0  0  0  0  0  0  0  0
    5.9883   -3.7172    5.2885 H   0  0  0  0  0  0  0  0  0  0  0  0
    2.1846  -15.0318    3.8222 H   0  0  0  0  0  0  0  0  0  0  0  0
    3.6524  -15.0009    4.7692 H   0  0  0  0  0  0  0  0  0  0  0  0
   17.5727  -13.6919   11.5374 H   0  0  0  0  0  0  0  0  0  0  0  0
   18.8577  -13.9061   12.7022 H   0  0  0  0  0  0  0  0  0  0  0  0
   15.0599   -4.9886    7.7214 H   0  0  0  0  0  0  0  0  0  0  0  0
   12.8250   -4.2551    3.9470 H   0  0  0  0  0  0  0  0  0  0  0  0
    3.9721  -10.6280    3.7353 H   0  0  0  0  0  0  0  0  0  0  0  0
   16.2771   -9.1466    7.5650 H   0  0  0  0  0  0  0  0  0  0  0  0
   16.1585  -11.3389   11.5631 H   0  0  0  0  0  0  0  0  0  0  0  0
    8.1910  -10.3573    2.3052 H   0  0  0  0  0  0  0  0  0  0  0  0
    9.0535   -6.7171    4.6318 H   0  0  0  0  0  0  0  0  0  0  0  0
   21.5364   -8.6513   12.0717 H   0  0  0  0  0  0  0  0  0  0  0  0
    3.6483   -9.1678    0.9135 H   0  0  0  0  0  0  0  0  0  0  0  0
   15.4662  -18.2312    5.7507 H   0  0  0  0  0  0  0  0  0  0  0  0
  1  3  2  0  0  0  0
  1  4  1  0  0  0  0
  1 79  1  0  0  0  0
  2  5  2  0  0  0  0
  2  6  1  0  0  0  0
  2 80  1  0  0  0  0
  3  7  1  0  0  0  0
  3 81  1  0  0  0  0
  4  8  2  0  0  0  0
  4 82  1  0  0  0  0
  5 11  1  0  0  0  0
  5 83  1  0  0  0  0
  6 15  2  0  0  0  0
  6 84  1  0  0  0  0
  7 16  2  0  0  0  0
  7 85  1  0  0  0  0
  8 16  1  0  0  0  0
  8 86  1  0  0  0  0
  9 12  2  0  0  0  0
  9 17  1  0  0  0  0
  9 87  1  0  0  0  0
 10 13  1  0  0  0  0
 10 17  2  0  0  0  0
 10 88  1  0  0  0  0
 11 19  2  0  0  0  0
 11 89  1  0  0  0  0
 12 20  1  0  0  0  0
 12 90  1  0  0  0  0
 13 20  2  0  0  0  0
 13 91  1  0  0  0  0
 14 18  2  0  0  0  0
 14 50  1  0  0  0  0
 14 92  1  0  0  0  0
 15 18  1  0  0  0  0
 15 19  1  0  0  0  0
 16 33  1  0  0  0  0
 17 34  1  0  0  0  0
 18 35  1  0  0  0  0
 19 50  1  0  0  0  0
 20 75  1  0  0  0  0
 21 36  1  0  0  0  0
 21 54  1  0  0  0  0
 21 60  2  0  0  0  0
 22 43  1  0  0  0  0
 22 51  1  0  0  0  0
 22 61  2  0  0  0  0
 23 44  1  0  0  0  0
 23 53  1  0  0  0  0
 23 62  2  0  0  0  0
 24 45  1  0  0  0  0
 24 56  1  0  0  0  0
 24 63  2  0  0  0  0
 25 46  1  0  0  0  0
 25 59  1  0  0  0  0
 25 64  2  0  0  0  0
 26 47  1  0  0  0  0
 26 57  1  0  0  0  0
 26 65  2  0  0  0  0
 27 48  1  0  0  0  0
 27 55  1  0  0  0  0
 27 66  2  0  0  0  0
 28 49  1  0  0  0  0
 28 58  1  0  0  0  0
 28 67  2  0  0  0  0
 29 37  1  0  0  0  0
 29 68  2  0  0  0  0
 29 72  1  0  0  0  0
 30 38  1  0  0  0  0
 30 69  2  0  0  0  0
 30 73  1  0  0  0  0
 31 76  1  0  0  0  0
 31 93  1  0  0  0  0
 31 94  1  0  0  0  0
 31 95  1  0  0  0  0
 32 77  1  0  0  0  0
 32 96  1  0  0  0  0
 32 97  1  0  0  0  0
 32 98  1  0  0  0  0
 33 43  1  0  0  0  0
 33 99  1  0  0  0  0
 33100  1  0  0  0  0
 34 45  1  0  0  0  0
 34101  1  0  0  0  0
 34102  1  0  0  0  0
 35 46  1  0  0  0  0
 35103  1  0  0  0  0
 35104  1  0  0  0  0
 36 53  1  0  0  0  0
 36105  1  0  0  0  0
 36106  1  0  0  0  0
 37 47  1  0  0  0  0
 37107  1  0  0  0  0
 37108  1  0  0  0  0
 38 48  1  0  0  0  0
 38109  1  0  0  0  0
 38110  1  0  0  0  0
 39 41  1  0  0  0  0
 39 44  1  0  0  0  0
 39111  1  0  0  0  0
 39112  1  0  0  0  0
 40 42  1  0  0  0  0
 40 49  1  0  0  0  0
 40113  1  0  0  0  0
 40114  1  0  0  0  0
 41 76  1  0  0  0  0
 41115  1  0  0  0  0
 41116  1  0  0  0  0
 42 77  1  0  0  0  0
 42117  1  0  0  0  0
 42118  1  0  0  0  0
 43 55  1  0  0  0  0
 43119  1  1  0  0  0
 44 56  1  0  0  0  0
 44120  1  1  0  0  0
 45 57  1  0  0  0  0
 45121  1  6  0  0  0
 46 54  1  0  0  0  0
 46122  1  1  0  0  0
 47 52  1  0  0  0  0
 47123  1  1  0  0  0
 48 58  1  0  0  0  0
 48124  1  1  0  0  0
 49 59  1  0  0  0  0
 49125  1  6  0  0  0
 50126  1  0  0  0  0
 51127  1  0  0  0  0
 51128  1  0  0  0  0
 52129  1  0  0  0  0
 52130  1  0  0  0  0
 53131  1  0  0  0  0
 54132  1  0  0  0  0
 55133  1  0  0  0  0
 56134  1  0  0  0  0
 57135  1  0  0  0  0
 58136  1  0  0  0  0
 59137  1  0  0  0  0
 70 78  2  0  0  0  0
 71 78  2  0  0  0  0
 72138  1  0  0  0  0
 73139  1  0  0  0  0
 74 78  1  0  0  0  0
 74140  1  0  0  0  0
 75 78  1  0  0  0  0
M  END
$$$$
DrugBank_1942
 OpenBabel01151909533D

 81 84  0  0  1  0  0  0  0  0999 V2000
    3.1774    2.3431   -5.6800 C   0  0  0  0  0  0  0  0  0  0  0  0
   -6.7797   -1.7754   -4.9496 C   0  0  0  0  0  0  0  0  0  0  0  0
   -9.9145    0.9316    4.5469 C   0  0  0  0  0  0  0  0  0  0  0  0
    0.3120   -6.2323    6.3181 C   0  0  0  0  0  0  0  0  0  0  0  0
    3.2739    3.0245   -4.4667 C   0  0  0  0  0  0  0  0  0  0  0  0
    2.1748    1.3917   -5.8677 C   0  0  0  0  0  0  0  0  0  0  0  0
   -5.4032   -1.9791   -5.0469 C   0  0  0  0  0  0  0  0  0  0  0  0
   -7.2814   -0.8035   -4.0839 C   0  0  0  0  0  0  0  0  0  0  0  0
   -8.6120    1.2372    4.9413 C   0  0  0  0  0  0  0  0  0  0  0  0
  -10.1354    0.0056    3.5273 C   0  0  0  0  0  0  0  0  0  0  0  0
    0.9266   -4.9853    6.4307 C   0  0  0  0  0  0  0  0  0  0  0  0
   -0.7222   -6.4199    5.4011 C   0  0  0  0  0  0  0  0  0  0  0  0
    2.3679    2.7545   -3.4412 C   0  0  0  0  0  0  0  0  0  0  0  0
    1.2687    1.1217   -4.8422 C   0  0  0  0  0  0  0  0  0  0  0  0
   -4.5285   -1.2111   -4.2784 C   0  0  0  0  0  0  0  0  0  0  0  0
   -6.4067   -0.0355   -3.3154 C   0  0  0  0  0  0  0  0  0  0  0  0
   -7.5303    0.6169    4.3162 C   0  0  0  0  0  0  0  0  0  0  0  0
   -9.0537   -0.6147    2.9022 C   0  0  0  0  0  0  0  0  0  0  0  0
    0.5069   -3.9258    5.6265 C   0  0  0  0  0  0  0  0  0  0  0  0
   -1.1419   -5.3604    4.5968 C   0  0  0  0  0  0  0  0  0  0  0  0
    1.3652    1.8031   -3.6289 C   0  0  0  0  0  0  0  0  0  0  0  0
   -5.0302   -0.2392   -3.4127 C   0  0  0  0  0  0  0  0  0  0  0  0
   -7.7511   -0.3091    3.2966 C   0  0  0  0  0  0  0  0  0  0  0  0
   -0.5274   -4.1133    4.7095 C   0  0  0  0  0  0  0  0  0  0  0  0
   -2.5119    0.5600   -0.6248 C   0  0  0  0  0  0  0  0  0  0  0  0
   -5.1257   -0.6720    0.7814 C   0  0  0  0  0  0  0  0  0  0  0  0
    0.3855    1.5105   -2.5206 C   0  0  0  0  0  0  0  0  0  0  0  0
   -4.0844    0.5920   -2.5807 C   0  0  0  0  0  0  0  0  0  0  0  0
   -6.5880   -0.9766    2.6235 C   0  0  0  0  0  0  0  0  0  0  0  0
   -0.9786   -2.9761    3.8458 C   0  0  0  0  0  0  0  0  0  0  0  0
    0.8879    0.3868   -1.6054 C   0  0  0  0  0  0  0  0  0  0  0  0
    0.4814   -1.0299    0.4441 C   0  0  0  0  0  0  0  0  0  0  0  0
   -0.3763   -1.3685    1.6593 C   0  0  0  0  0  0  0  0  0  0  0  0
   -3.7816   -0.0406   -1.2175 C   0  0  2  0  0  0  0  0  0  0  0  0
   -0.0666    0.1121   -0.4301 C   0  0  2  0  0  0  0  0  0  0  0  0
   -1.3910   -0.2061   -0.9131 N   0  0  0  0  0  0  0  0  0  0  0  0
   -4.8421    0.1810   -0.2669 N   0  0  0  0  0  0  0  0  0  0  0  0
   -2.5113    1.5796    0.0617 O   0  0  0  0  0  0  0  0  0  0  0  0
   -4.5263   -1.7106    1.0395 O   0  0  0  0  0  0  0  0  0  0  0  0
    0.2862   -3.8954    1.7511 O   0  0  0  0  0  0  0  0  0  0  0  0
    1.4718   -2.2683    3.2740 O   0  0  0  0  0  0  0  0  0  0  0  0
   -6.1827   -0.1875    1.4994 O   0  0  0  0  0  0  0  0  0  0  0  0
    0.2640   -2.7157    2.6002 S   0  0  0  0  0  0  0  0  0  0  0  0
    3.8822    2.5545   -6.4789 H   0  0  0  0  0  0  0  0  0  0  0  0
   -7.4606   -2.3726   -5.5491 H   0  0  0  0  0  0  0  0  0  0  0  0
  -10.7567    1.4137    5.0347 H   0  0  0  0  0  0  0  0  0  0  0  0
    0.6399   -7.0576    6.9435 H   0  0  0  0  0  0  0  0  0  0  0  0
    4.0539    3.7661   -4.3207 H   0  0  0  0  0  0  0  0  0  0  0  0
    2.0987    0.8618   -6.8126 H   0  0  0  0  0  0  0  0  0  0  0  0
   -5.0123   -2.7350   -5.7218 H   0  0  0  0  0  0  0  0  0  0  0  0
   -8.3530   -0.6439   -4.0087 H   0  0  0  0  0  0  0  0  0  0  0  0
   -8.4398    1.9574    5.7359 H   0  0  0  0  0  0  0  0  0  0  0  0
  -11.1494   -0.2333    3.2207 H   0  0  0  0  0  0  0  0  0  0  0  0
    1.7327   -4.8393    7.1439 H   0  0  0  0  0  0  0  0  0  0  0  0
   -1.2002   -7.3910    5.3124 H   0  0  0  0  0  0  0  0  0  0  0  0
    2.4508    3.2901   -2.4992 H   0  0  0  0  0  0  0  0  0  0  0  0
    0.4909    0.3787   -4.9974 H   0  0  0  0  0  0  0  0  0  0  0  0
   -3.4575   -1.3769   -4.3606 H   0  0  0  0  0  0  0  0  0  0  0  0
   -6.8067    0.7193   -2.6435 H   0  0  0  0  0  0  0  0  0  0  0  0
   -6.5188    0.8613    4.6300 H   0  0  0  0  0  0  0  0  0  0  0  0
   -9.2354   -1.3348    2.1087 H   0  0  0  0  0  0  0  0  0  0  0  0
    0.9915   -2.9575    5.7212 H   0  0  0  0  0  0  0  0  0  0  0  0
   -1.9486   -5.5158    3.8853 H   0  0  0  0  0  0  0  0  0  0  0  0
   -0.5841    1.2471   -2.9609 H   0  0  0  0  0  0  0  0  0  0  0  0
    0.2136    2.4234   -1.9364 H   0  0  0  0  0  0  0  0  0  0  0  0
   -3.1526    0.7598   -3.1376 H   0  0  0  0  0  0  0  0  0  0  0  0
   -4.5259    1.5890   -2.4513 H   0  0  0  0  0  0  0  0  0  0  0  0
   -5.7423   -1.0780    3.3122 H   0  0  0  0  0  0  0  0  0  0  0  0
   -6.8629   -1.9791    2.2783 H   0  0  0  0  0  0  0  0  0  0  0  0
   -1.0906   -2.0488    4.4146 H   0  0  0  0  0  0  0  0  0  0  0  0
   -1.9249   -3.1940    3.3426 H   0  0  0  0  0  0  0  0  0  0  0  0
    1.0297   -0.5305   -2.1926 H   0  0  0  0  0  0  0  0  0  0  0  0
    1.8749    0.6619   -1.2109 H   0  0  0  0  0  0  0  0  0  0  0  0
    0.5741   -1.9363   -0.1684 H   0  0  0  0  0  0  0  0  0  0  0  0
    1.4925   -0.7720    0.7837 H   0  0  0  0  0  0  0  0  0  0  0  0
   -0.4910   -0.5190    2.3378 H   0  0  0  0  0  0  0  0  0  0  0  0
   -1.3743   -1.6779    1.3319 H   0  0  0  0  0  0  0  0  0  0  0  0
   -3.6594   -1.1269   -1.3016 H   0  0  0  0  0  0  0  0  0  0  0  0
   -0.1609    1.0259    0.1660 H   0  0  0  0  0  0  0  0  0  0  0  0
   -1.5074   -1.0321   -1.4928 H   0  0  0  0  0  0  0  0  0  0  0  0
   -5.4150    1.0142   -0.3746 H   0  0  0  0  0  0  0  0  0  0  0  0
  1  5  2  0  0  0  0
  1  6  1  0  0  0  0
  1 44  1  0  0  0  0
  2  7  2  0  0  0  0
  2  8  1  0  0  0  0
  2 45  1  0  0  0  0
  3  9  2  0  0  0  0
  3 10  1  0  0  0  0
  3 46  1  0  0  0  0
  4 11  2  0  0  0  0
  4 12  1  0  0  0  0
  4 47  1  0  0  0  0
  5 13  1  0  0  0  0
  5 48  1  0  0  0  0
  6 14  2  0  0  0  0
  6 49  1  0  0  0  0
  7 15  1  0  0  0  0
  7 50  1  0  0  0  0
  8 16  2  0  0  0  0
  8 51  1  0  0  0  0
  9 17  1  0  0  0  0
  9 52  1  0  0  0  0
 10 18  2  0  0  0  0
 10 53  1  0  0  0  0
 11 19  1  0  0  0  0
 11 54  1  0  0  0  0
 12 20  2  0  0  0  0
 12 55  1  0  0  0  0
 13 21  2  0  0  0  0
 13 56  1  0  0  0  0
 14 21  1  0  0  0  0
 14 57  1  0  0  0  0
 15 22  2  0  0  0  0
 15 58  1  0  0  0  0
 16 22  1  0  0  0  0
 16 59  1  0  0  0  0
 17 23  2  0  0  0  0
 17 60  1  0  0  0  0
 18 23  1  0  0  0  0
 18 61  1  0  0  0  0
 19 24  2  0  0  0  0
 19 62  1  0  0  0  0
 20 24  1  0  0  0  0
 20 63  1  0  0  0  0
 21 27  1  0  0  0  0
 22 28  1  0  0  0  0
 23 29  1  0  0  0  0
 24 30  1  0  0  0  0
 25 34  1  0  0  0  0
 25 36  1  0  0  0  0
 25 38  2  0  0  0  0
 26 37  1  0  0  0  0
 26 39  2  0  0  0  0
 26 42  1  0  0  0  0
 27 31  1  0  0  0  0
 27 64  1  0  0  0  0
 27 65  1  0  0  0  0
 28 34  1  0  0  0  0
 28 66  1  0  0  0  0
 28 67  1  0  0  0  0
 29 42  1  0  0  0  0
 29 68  1  0  0  0  0
 29 69  1  0  0  0  0
 30 43  1  0  0  0  0
 30 70  1  0  0  0  0
 30 71  1  0  0  0  0
 31 35  1  0  0  0  0
 31 72  1  0  0  0  0
 31 73  1  0  0  0  0
 32 33  1  0  0  0  0
 32 35  1  0  0  0  0
 32 74  1  0  0  0  0
 32 75  1  0  0  0  0
 33 43  1  0  0  0  0
 33 76  1  0  0  0  0
 33 77  1  0  0  0  0
 34 37  1  0  0  0  0
 34 78  1  6  0  0  0
 35 36  1  0  0  0  0
 35 79  1  1  0  0  0
 36 80  1  0  0  0  0
 37 81  1  0  0  0  0
 40 43  2  0  0  0  0
 41 43  2  0  0  0  0
M  END
$$$$
DrugBank_4580
 OpenBabel01151909533D

 56 58  0  0  1  0  0  0  0  0999 V2000
   -3.7844  -10.4804    0.4943 C   0  0  0  0  0  0  0  0  0  0  0  0
   -4.4150  -11.7034    0.2484 C   0  0  0  0  0  0  0  0  0  0  0  0
   -8.4424  -13.3631   -4.0914 C   0  0  0  0  0  0  0  0  0  0  0  0
   -3.4753   -9.5989   -0.5616 C   0  0  0  0  0  0  0  0  0  0  0  0
   -9.5351  -12.7955   -4.7467 C   0  0  0  0  0  0  0  0  0  0  0  0
   -6.9911  -12.6344   -5.8802 C   0  0  0  0  0  0  0  0  0  0  0  0
   -4.7166  -12.0023   -1.0644 C   0  0  0  0  0  0  0  0  0  0  0  0
   -4.4122  -11.1352   -2.1034 C   0  0  0  0  0  0  0  0  0  0  0  0
   -7.1704  -13.2825   -4.6581 C   0  0  0  0  0  0  0  0  0  0  0  0
   -3.7906   -9.9230   -1.8843 C   0  0  0  0  0  0  0  0  0  0  0  0
   -9.3559  -12.1474   -5.9688 C   0  0  0  0  0  0  0  0  0  0  0  0
   -8.0838  -12.0669   -6.5355 C   0  0  0  0  0  0  0  0  0  0  0  0
   -5.3657  -13.1822   -1.6343 C   0  0  0  0  0  0  0  0  0  0  0  0
   -4.8625  -11.7483   -3.3528 C   0  0  0  0  0  0  0  0  0  0  0  0
   -4.3785   -8.1829   -3.2236 C   0  0  0  0  0  0  0  0  0  0  0  0
   -4.3707   -7.1094   -4.2703 C   0  0  0  0  0  0  0  0  0  0  0  0
   -7.4452   -9.3563   -8.8238 C   0  0  0  0  0  0  0  0  0  0  0  0
  -10.7402  -10.2401   -6.2878 C   0  0  0  0  0  0  0  0  0  0  0  0
   -2.6722  -15.9905   -5.4317 C   0  0  0  0  0  0  0  0  0  0  0  0
   -7.0104  -10.3197   -7.7400 C   0  0  0  0  0  0  0  0  0  0  0  0
   -4.8798  -14.3893   -4.8922 C   0  0  0  0  0  0  0  0  0  0  0  0
   -5.9805  -13.8980   -3.9436 C   0  0  1  0  0  0  0  0  0  0  0  0
   -3.4804   -9.0432   -2.9230 N   0  0  0  0  0  0  0  0  0  0  0  0
   -5.4135  -12.9603   -2.9948 N   0  0  0  0  0  0  0  0  0  0  0  0
   -5.7590  -14.1297   -0.9797 O   0  0  0  0  0  0  0  0  0  0  0  0
   -4.7444  -11.2392   -4.4521 O   0  0  0  0  0  0  0  0  0  0  0  0
   -3.1265  -15.0048   -3.0537 O   0  0  0  0  0  0  0  0  0  0  0  0
   -4.6526  -16.8114   -3.9362 O   0  0  0  0  0  0  0  0  0  0  0  0
   -5.5365   -8.1962   -2.5240 O   0  0  0  0  0  0  0  0  0  0  0  0
  -10.4313  -11.5973   -6.5988 O   0  0  0  0  0  0  0  0  0  0  0  0
   -7.8965  -11.4372   -7.7289 O   0  0  0  0  0  0  0  0  0  0  0  0
   -3.8494  -15.6211   -4.1520 S   0  0  0  0  0  0  0  0  0  0  0  0
   -3.5274  -10.2031    1.5134 H   0  0  0  0  0  0  0  0  0  0  0  0
   -4.6528  -12.3805    1.0602 H   0  0  0  0  0  0  0  0  0  0  0  0
   -8.5912  -13.8646   -3.1389 H   0  0  0  0  0  0  0  0  0  0  0  0
   -2.9849   -8.6555   -0.3322 H   0  0  0  0  0  0  0  0  0  0  0  0
  -10.5233  -12.8623   -4.2998 H   0  0  0  0  0  0  0  0  0  0  0  0
   -6.0005  -12.5697   -6.3238 H   0  0  0  0  0  0  0  0  0  0  0  0
   -4.7709   -7.4899   -5.2149 H   0  0  0  0  0  0  0  0  0  0  0  0
   -4.9938   -6.2705   -3.9495 H   0  0  0  0  0  0  0  0  0  0  0  0
   -3.3474   -6.7677   -4.4464 H   0  0  0  0  0  0  0  0  0  0  0  0
   -7.4153   -9.8351   -9.8065 H   0  0  0  0  0  0  0  0  0  0  0  0
   -8.4627   -8.9978   -8.6360 H   0  0  0  0  0  0  0  0  0  0  0  0
   -6.7953   -8.4752   -8.8402 H   0  0  0  0  0  0  0  0  0  0  0  0
  -11.6181   -9.9257   -6.8574 H   0  0  0  0  0  0  0  0  0  0  0  0
   -9.8856   -9.6052   -6.5350 H   0  0  0  0  0  0  0  0  0  0  0  0
  -10.9540  -10.1601   -5.2193 H   0  0  0  0  0  0  0  0  0  0  0  0
   -1.9859  -16.7524   -5.0587 H   0  0  0  0  0  0  0  0  0  0  0  0
   -3.2154  -16.3588   -6.3033 H   0  0  0  0  0  0  0  0  0  0  0  0
   -2.1313  -15.0752   -5.6765 H   0  0  0  0  0  0  0  0  0  0  0  0
   -7.0426   -9.8346   -6.7599 H   0  0  0  0  0  0  0  0  0  0  0  0
   -5.9940  -10.6776   -7.9296 H   0  0  0  0  0  0  0  0  0  0  0  0
   -5.3157  -14.8677   -5.7769 H   0  0  0  0  0  0  0  0  0  0  0  0
   -4.2200  -13.5857   -5.2343 H   0  0  0  0  0  0  0  0  0  0  0  0
   -6.3344  -14.7591   -3.3622 H   0  0  0  0  0  0  0  0  0  0  0  0
   -6.1471   -7.5046   -2.8332 H   0  0  0  0  0  0  0  0  0  0  0  0
  1  2  2  0  0  0  0
  1  4  1  0  0  0  0
  1 33  1  0  0  0  0
  2  7  1  0  0  0  0
  2 34  1  0  0  0  0
  3  5  2  0  0  0  0
  3  9  1  0  0  0  0
  3 35  1  0  0  0  0
  4 10  2  0  0  0  0
  4 36  1  0  0  0  0
  5 11  1  0  0  0  0
  5 37  1  0  0  0  0
  6  9  2  0  0  0  0
  6 12  1  0  0  0  0
  6 38  1  0  0  0  0
  7  8  2  0  0  0  0
  7 13  1  0  0  0  0
  8 10  1  0  0  0  0
  8 14  1  0  0  0  0
  9 22  1  0  0  0  0
 10 23  1  0  0  0  0
 11 12  2  0  0  0  0
 11 30  1  0  0  0  0
 12 31  1  0  0  0  0
 13 24  1  0  0  0  0
 13 25  2  0  0  0  0
 14 24  1  0  0  0  0
 14 26  2  0  0  0  0
 15 16  1  0  0  0  0
 15 23  2  0  0  0  0
 15 29  1  0  0  0  0
 16 39  1  0  0  0  0
 16 40  1  0  0  0  0
 16 41  1  0  0  0  0
 17 20  1  0  0  0  0
 17 42  1  0  0  0  0
 17 43  1  0  0  0  0
 17 44  1  0  0  0  0
 18 30  1  0  0  0  0
 18 45  1  0  0  0  0
 18 46  1  0  0  0  0
 18 47  1  0  0  0  0
 19 32  1  0  0  0  0
 19 48  1  0  0  0  0
 19 49  1  0  0  0  0
 19 50  1  0  0  0  0
 20 31  1  0  0  0  0
 20 51  1  0  0  0  0
 20 52  1  0  0  0  0
 21 22  1  0  0  0  0
 21 32  1  0  0  0  0
 21 53  1  0  0  0  0
 21 54  1  0  0  0  0
 22 24  1  0  0  0  0
 22 55  1  1  0  0  0
 27 32  2  0  0  0  0
 28 32  2  0  0  0  0
 29 56  1  0  0  0  0
M  END
$$$$
DrugBank_4584
 OpenBabel01151909533D

 36 38  0  0  1  0  0  0  0  0999 V2000
    1.9070    0.1539    1.4151 C   0  0  0  0  0  0  0  0  0  0  0  0
    0.9650   -0.2232    0.5444 C   0  0  0  0  0  0  0  0  0  0  0  0
    0.0013    0.8630    0.4128 C   0  0  0  0  0  0  0  0  0  0  0  0
    1.5941    1.4957    1.8863 C   0  0  0  0  0  0  0  0  0  0  0  0
    0.4488    1.9318    1.3118 C   0  0  0  0  0  0  0  0  0  0  0  0
   -1.0494    0.7252   -0.4300 C   0  0  0  0  0  0  0  0  0  0  0  0
    0.7948   -1.5447   -0.0923 C   0  0  0  0  0  0  0  0  0  0  0  0
   -2.1300   -0.5702   -2.4733 C   0  0  0  0  0  0  0  0  0  0  0  0
   -0.7276   -0.1611   -2.8000 C   0  0  0  0  0  0  0  0  0  0  0  0
   -1.1057   -0.4811   -1.3545 C   0  0  0  0  0  0  0  0  0  0  0  0
   -0.5690   -1.7871   -0.7431 C   0  0  2  0  0  0  0  0  0  0  0  0
    2.4932    2.1621    2.8664 C   0  0  0  0  0  0  0  0  0  0  0  0
   -2.1978    1.6967   -0.5139 C   0  0  0  0  0  0  0  0  0  0  0  0
   -1.5454   -2.3518    0.2933 C   0  0  0  0  0  0  0  0  0  0  0  0
   -0.1920    3.2621    1.4821 C   0  0  0  0  0  0  0  0  0  0  0  0
    1.6844   -2.3898   -0.0579 O   0  0  0  0  0  0  0  0  0  0  0  0
   -0.3717   -2.7815   -1.7473 O   0  0  0  0  0  0  0  0  0  0  0  0
   -0.2074    3.9617    0.2465 O   0  0  0  0  0  0  0  0  0  0  0  0
    2.7373   -0.4377    1.7673 H   0  0  0  0  0  0  0  0  0  0  0  0
   -2.9007    0.1815   -2.5862 H   0  0  0  0  0  0  0  0  0  0  0  0
   -2.4571   -1.5509   -2.8013 H   0  0  0  0  0  0  0  0  0  0  0  0
   -0.1131   -0.8578   -3.3571 H   0  0  0  0  0  0  0  0  0  0  0  0
   -0.5641    0.8722   -3.0867 H   0  0  0  0  0  0  0  0  0  0  0  0
    3.2657    2.7282    2.3422 H   0  0  0  0  0  0  0  0  0  0  0  0
    2.9714    1.4163    3.5050 H   0  0  0  0  0  0  0  0  0  0  0  0
    1.9201    2.8440    3.4981 H   0  0  0  0  0  0  0  0  0  0  0  0
   -1.9654    2.4604   -1.2494 H   0  0  0  0  0  0  0  0  0  0  0  0
   -2.3499    2.1543    0.4590 H   0  0  0  0  0  0  0  0  0  0  0  0
   -3.0962    1.1622   -0.8069 H   0  0  0  0  0  0  0  0  0  0  0  0
   -2.5129   -2.5227   -0.1724 H   0  0  0  0  0  0  0  0  0  0  0  0
   -1.6591   -1.6439    1.1106 H   0  0  0  0  0  0  0  0  0  0  0  0
   -1.1614   -3.2919    0.6817 H   0  0  0  0  0  0  0  0  0  0  0  0
    0.3509    3.8621    2.2178 H   0  0  0  0  0  0  0  0  0  0  0  0
   -1.2242    3.1411    1.8213 H   0  0  0  0  0  0  0  0  0  0  0  0
   -0.0376   -3.5691   -1.2917 H   0  0  0  0  0  0  0  0  0  0  0  0
   -0.6339    4.8182    0.4133 H   0  0  0  0  0  0  0  0  0  0  0  0
  1  2  2  0  0  0  0
  1  4  1  0  0  0  0
  1 19  1  0  0  0  0
  2  3  1  0  0  0  0
  2  7  1  0  0  0  0
  3  5  1  0  0  0  0
  3  6  2  0  0  0  0
  4  5  2  0  0  0  0
  4 12  1  0  0  0  0
  5 15  1  0  0  0  0
  6 10  1  0  0  0  0
  6 13  1  0  0  0  0
  7 11  1  0  0  0  0
  7 16  2  0  0  0  0
  8  9  1  0  0  0  0
  8 10  1  0  0  0  0
  8 20  1  0  0  0  0
  8 21  1  0  0  0  0
  9 10  1  0  0  0  0
  9 22  1  0  0  0  0
  9 23  1  0  0  0  0
 10 11  1  0  0  0  0
 11 14  1  0  0  0  0
 11 17  1  6  0  0  0
 12 24  1  0  0  0  0
 12 25  1  0  0  0  0
 12 26  1  0  0  0  0
 13 27  1  0  0  0  0
 13 28  1  0  0  0  0
 13 29  1  0  0  0  0
 14 30  1  0  0  0  0
 14 31  1  0  0  0  0
 14 32  1  0  0  0  0
 15 18  1  0  0  0  0
 15 33  1  0  0  0  0
 15 34  1  0  0  0  0
 17 35  1  0  0  0  0
 18 36  1  0  0  0  0
M  END
$$$$
DrugBank_4586
 OpenBabel01151909533D

 26 25  0  0  0  0  0  0  0  0999 V2000
    0.6462    0.8699    0.7950 C   0  0  0  0  0  0  0  0  0  0  0  0
   -0.0870    1.1320   -0.5130 C   0  0  0  0  0  0  0  0  0  0  0  0
    1.2285   -0.5146    1.0426 C   0  0  0  0  0  0  0  0  0  0  0  0
   -1.3209    0.3032   -0.8519 C   0  0  0  0  0  0  0  0  0  0  0  0
    2.2748   -1.0583    0.0812 C   0  0  0  0  0  0  0  0  0  0  0  0
   -2.4853    0.3920    0.1309 C   0  0  0  0  0  0  0  0  0  0  0  0
    3.5470   -0.2584   -0.0535 C   0  0  0  0  0  0  0  0  0  0  0  0
   -3.7136   -0.4337   -0.2077 C   0  0  0  0  0  0  0  0  0  0  0  0
   -0.1959    1.1562    1.8283 F   0  0  0  0  0  0  0  0  0  0  0  0
    1.6513    1.7859    0.8964 F   0  0  0  0  0  0  0  0  0  0  0  0
    0.7971    0.9961   -1.5410 F   0  0  0  0  0  0  0  0  0  0  0  0
   -0.4495    2.4484   -0.5195 F   0  0  0  0  0  0  0  0  0  0  0  0
    0.2077   -1.4146    1.0987 F   0  0  0  0  0  0  0  0  0  0  0  0
    1.7756   -0.5071    2.2939 F   0  0  0  0  0  0  0  0  0  0  0  0
   -1.7624    0.7337   -2.0703 F   0  0  0  0  0  0  0  0  0  0  0  0
   -0.9547   -0.9898   -1.0271 F   0  0  0  0  0  0  0  0  0  0  0  0
    1.7322   -1.2299   -1.1498 F   0  0  0  0  0  0  0  0  0  0  0  0
    2.6176   -2.3059    0.5156 F   0  0  0  0  0  0  0  0  0  0  0  0
   -2.8850    1.6956    0.1917 F   0  0  0  0  0  0  0  0  0  0  0  0
   -2.0716    0.0666    1.3812 F   0  0  0  0  0  0  0  0  0  0  0  0
    4.1720   -0.1677    1.1424 F   0  0  0  0  0  0  0  0  0  0  0  0
    3.2954    0.9974   -0.4789 F   0  0  0  0  0  0  0  0  0  0  0  0
    4.4144   -0.8246   -0.9159 F   0  0  0  0  0  0  0  0  0  0  0  0
   -4.2187   -0.0507   -1.4063 F   0  0  0  0  0  0  0  0  0  0  0  0
   -4.6769   -0.1718    0.7162 F   0  0  0  0  0  0  0  0  0  0  0  0
   -3.3672   -2.3431   -0.2096 Br  0  0  0  0  0  0  0  0  0  0  0  0
  1  2  1  0  0  0  0
  1  3  1  0  0  0  0
  1  9  1  0  0  0  0
  1 10  1  0  0  0  0
  2  4  1  0  0  0  0
  2 11  1  0  0  0  0
  2 12  1  0  0  0  0
  3  5  1  0  0  0  0
  3 13  1  0  0  0  0
  3 14  1  0  0  0  0
  4  6  1  0  0  0  0
  4 15  1  0  0  0  0
  4 16  1  0  0  0  0
  5  7  1  0  0  0  0
  5 17  1  0  0  0  0
  5 18  1  0  0  0  0
  6  8  1  0  0  0  0
  6 19  1  0  0  0  0
  6 20  1  0  0  0  0
  7 21  1  0  0  0  0
  7 22  1  0  0  0  0
  7 23  1  0  0  0  0
  8 24  1  0  0  0  0
  8 25  1  0  0  0  0
  8 26  1  0  0  0  0
M  END
$$$$
DrugBank_6947
 OpenBabel01151909533D

 19 18  0  0  0  0  0  0  0  0999 V2000
   -2.9931   -1.2517   -0.0502 C   0  0  0  0  0  0  0  0  0  0  0  0
    0.6944   -0.3095   -1.2407 C   0  0  0  0  0  0  0  0  0  0  0  0
    0.2833   -1.3936    0.9819 C   0  0  0  0  0  0  0  0  0  0  0  0
    1.2470    2.0513    0.1622 C   0  0  0  0  0  0  0  0  0  0  0  0
   -1.1488    0.5446    0.2898 C   0  0  0  0  0  0  0  0  0  0  0  0
    0.2502   -0.0764    0.2046 C   0  0  0  0  0  0  0  0  0  0  0  0
   -2.1646   -0.4447    0.1023 N   0  0  0  0  0  0  0  0  0  0  0  0
    1.1845    0.8034    0.8334 O   0  0  0  0  0  0  0  0  0  0  0  0
    0.6788    0.6213   -1.8182 H   0  0  0  0  0  0  0  0  0  0  0  0
    1.7290   -0.6698   -1.2750 H   0  0  0  0  0  0  0  0  0  0  0  0
    0.0557   -1.0424   -1.7442 H   0  0  0  0  0  0  0  0  0  0  0  0
   -0.0304   -1.2570    2.0221 H   0  0  0  0  0  0  0  0  0  0  0  0
   -0.3722   -2.1387    0.5165 H   0  0  0  0  0  0  0  0  0  0  0  0
    1.2912   -1.8246    0.9769 H   0  0  0  0  0  0  0  0  0  0  0  0
    1.9679    2.7006    0.6651 H   0  0  0  0  0  0  0  0  0  0  0  0
    0.2582    2.5169    0.1638 H   0  0  0  0  0  0  0  0  0  0  0  0
    1.5675    1.8848   -0.8689 H   0  0  0  0  0  0  0  0  0  0  0  0
   -1.3102    1.0228    1.2616 H   0  0  0  0  0  0  0  0  0  0  0  0
   -1.2836    1.2999   -0.4927 H   0  0  0  0  0  0  0  0  0  0  0  0
  1  7  3  0  0  0  0
  2  6  1  0  0  0  0
  2  9  1  0  0  0  0
  2 10  1  0  0  0  0
  2 11  1  0  0  0  0
  3  6  1  0  0  0  0
  3 12  1  0  0  0  0
  3 13  1  0  0  0  0
  3 14  1  0  0  0  0
  4  8  1  0  0  0  0
  4 15  1  0  0  0  0
  4 16  1  0  0  0  0
  4 17  1  0  0  0  0
  5  6  1  0  0  0  0
  5  7  1  0  0  0  0
  5 18  1  0  0  0  0
  5 19  1  0  0  0  0
  6  8  1  0  0  0  0
M  END
$$$$
DrugBank_4590
 OpenBabel01151909533D

 53 56  0  0  1  0  0  0  0  0999 V2000
    1.8744   -0.4117    0.8731 C   0  0  0  0  0  0  0  0  0  0  0  0
    2.1551   -0.8883    2.0986 C   0  0  0  0  0  0  0  0  0  0  0  0
   -3.0013    3.1856    2.0168 C   0  0  0  0  0  0  0  0  0  0  0  0
    0.7678    0.5449    0.5634 C   0  0  0  0  0  0  0  0  0  0  0  0
    3.3194   -1.8322    2.2918 C   0  0  0  0  0  0  0  0  0  0  0  0
   -2.7106    3.4361    0.5463 C   0  0  0  0  0  0  0  0  0  0  0  0
   -1.2839    2.8926    0.3785 C   0  0  0  0  0  0  0  0  0  0  0  0
   -0.8671    0.6838    4.1358 C   0  0  0  0  0  0  0  0  0  0  0  0
    2.2352   -2.7228    4.3815 C   0  0  0  0  0  0  0  0  0  0  0  0
    1.0245   -1.8200    4.1499 C   0  0  0  0  0  0  0  0  0  0  0  0
   -2.1414    1.4459    3.7305 C   0  0  0  0  0  0  0  0  0  0  0  0
    0.1590    1.2051    1.8087 C   0  0  1  0  0  0  0  0  0  0  0  0
   -1.1922    1.8460    1.4835 C   0  0  1  0  0  0  0  0  0  0  0  0
   -0.0377    0.1459    2.9349 C   0  0  1  0  0  0  0  0  0  0  0  0
    2.9146   -3.0836    3.0644 C   0  0  2  0  0  0  0  0  0  0  0  0
    1.3348   -0.5233    3.3441 C   0  0  2  0  0  0  0  0  0  0  0  0
   -1.8191    2.5333    2.7110 C   0  0  1  0  0  0  0  0  0  0  0  0
    2.1882    0.4292    4.2156 C   0  0  0  0  0  0  0  0  0  0  0  0
   -0.9931    3.6710    3.3380 C   0  0  0  0  0  0  0  0  0  0  0  0
   -4.0480    3.4984    2.5685 O   0  0  0  0  0  0  0  0  0  0  0  0
    3.5749   -5.5357    5.0884 O   0  0  0  0  0  0  0  0  0  0  0  0
    3.1355   -6.0847    2.6734 O   0  0  0  0  0  0  0  0  0  0  0  0
    5.4712   -5.9988    3.5450 O   0  0  0  0  0  0  0  0  0  0  0  0
    4.0844   -3.8516    3.3280 O   0  0  0  0  0  0  0  0  0  0  0  0
    3.9459   -5.4385    3.6889 S   0  0  0  0  0  0  0  0  0  0  0  0
    2.4799   -0.7233    0.0253 H   0  0  0  0  0  0  0  0  0  0  0  0
    1.1539    1.3260   -0.1026 H   0  0  0  0  0  0  0  0  0  0  0  0
    0.0001   -0.0002    0.0001 H   0  0  0  0  0  0  0  0  0  0  0  0
    3.7573   -2.1365    1.3322 H   0  0  0  0  0  0  0  0  0  0  0  0
    4.1306   -1.3135    2.8184 H   0  0  0  0  0  0  0  0  0  0  0  0
   -3.4224    2.8653   -0.0568 H   0  0  0  0  0  0  0  0  0  0  0  0
   -2.7659    4.5011    0.3110 H   0  0  0  0  0  0  0  0  0  0  0  0
   -1.1400    2.4666   -0.6193 H   0  0  0  0  0  0  0  0  0  0  0  0
   -0.5414    3.6868    0.5123 H   0  0  0  0  0  0  0  0  0  0  0  0
   -0.2570    1.3505    4.7523 H   0  0  0  0  0  0  0  0  0  0  0  0
   -1.1619   -0.1491    4.7841 H   0  0  0  0  0  0  0  0  0  0  0  0
    2.9526   -2.2428    5.0585 H   0  0  0  0  0  0  0  0  0  0  0  0
    1.9195   -3.6391    4.8956 H   0  0  0  0  0  0  0  0  0  0  0  0
    0.2637   -2.4084    3.6189 H   0  0  0  0  0  0  0  0  0  0  0  0
    0.5934   -1.5685    5.1263 H   0  0  0  0  0  0  0  0  0  0  0  0
   -2.8723    0.7387    3.3171 H   0  0  0  0  0  0  0  0  0  0  0  0
   -2.6124    1.8778    4.6219 H   0  0  0  0  0  0  0  0  0  0  0  0
    0.8547    1.9802    2.1500 H   0  0  0  0  0  0  0  0  0  0  0  0
   -1.8601    1.0254    1.1671 H   0  0  0  0  0  0  0  0  0  0  0  0
   -0.6596   -0.6486    2.4904 H   0  0  0  0  0  0  0  0  0  0  0  0
    2.2432   -3.6970    2.4510 H   0  0  0  0  0  0  0  0  0  0  0  0
    1.6221    0.6953    5.0984 H   0  0  0  0  0  0  0  0  0  0  0  0
    2.4189    1.3158    3.6399 H   0  0  0  0  0  0  0  0  0  0  0  0
    3.1006   -0.0797    4.4976 H   0  0  0  0  0  0  0  0  0  0  0  0
   -0.1334    3.2491    3.8474 H   0  0  0  0  0  0  0  0  0  0  0  0
   -1.6105    4.2110    4.0477 H   0  0  0  0  0  0  0  0  0  0  0  0
   -0.6608    4.3442    2.5550 H   0  0  0  0  0  0  0  0  0  0  0  0
    5.9068   -5.8340    2.6764 H   0  0  0  0  0  0  0  0  0  0  0  0
  1  2  2  0  0  0  0
  1  4  1  0  0  0  0
  1 26  1  0  0  0  0
  2  5  1  0  0  0  0
  2 16  1  0  0  0  0
  3  6  1  0  0  0  0
  3 17  1  0  0  0  0
  3 20  2  0  0  0  0
  4 12  1  0  0  0  0
  4 27  1  0  0  0  0
  4 28  1  0  0  0  0
  5 15  1  0  0  0  0
  5 29  1  0  0  0  0
  5 30  1  0  0  0  0
  6  7  1  0  0  0  0
  6 31  1  0  0  0  0
  6 32  1  0  0  0  0
  7 13  1  0  0  0  0
  7 33  1  0  0  0  0
  7 34  1  0  0  0  0
  8 11  1  0  0  0  0
  8 14  1  0  0  0  0
  8 35  1  0  0  0  0
  8 36  1  0  0  0  0
  9 10  1  0  0  0  0
  9 15  1  0  0  0  0
  9 37  1  0  0  0  0
  9 38  1  0  0  0  0
 10 16  1  0  0  0  0
 10 39  1  0  0  0  0
 10 40  1  0  0  0  0
 11 17  1  0  0  0  0
 11 41  1  0  0  0  0
 11 42  1  0  0  0  0
 12 13  1  6  0  0  0
 12 43  1  0  0  0  0
 13 17  1  1  0  0  0
 13 44  1  0  0  0  0
 14 12  1  6  0  0  0
 14 45  1  0  0  0  0
 15 24  1  0  0  0  0
 15 46  1  6  0  0  0
 16 14  1  6  0  0  0
 16 18  1  0  0  0  0
 17 19  1  1  0  0  0
 18 47  1  0  0  0  0
 18 48  1  0  0  0  0
 18 49  1  0  0  0  0
 19 50  1  0  0  0  0
 19 51  1  0  0  0  0
 19 52  1  0  0  0  0
 21 25  2  0  0  0  0
 22 25  2  0  0  0  0
 23 25  1  0  0  0  0
 23 53  1  0  0  0  0
 24 25  1  0  0  0  0
M  END
$$$$
DrugBank_4593
 OpenBabel01151909533D

 31 30  0  0  0  0  0  0  0  0999 V2000
    1.6836   -0.2338   -0.4172 C   0  0  0  0  0  0  0  0  0  0  0  0
    3.3380    1.5108    0.2129 C   0  0  0  0  0  0  0  0  0  0  0  0
    0.5675   -3.2325   -0.0103 C   0  0  0  0  0  0  0  0  0  0  0  0
   -2.3760    0.5820    2.0980 C   0  0  0  0  0  0  0  0  0  0  0  0
   -1.3712    1.1410   -0.8828 C   0  0  0  0  0  0  0  0  0  0  0  0
   -2.4867    0.5031   -1.6936 C   0  0  0  0  0  0  0  0  0  0  0  0
    1.9883    1.0053    0.1258 N   0  0  0  0  0  0  0  0  0  0  0  0
    0.2878   -0.6063   -0.4403 N   0  0  0  0  0  0  0  0  0  0  0  0
   -0.7215    0.1867    0.0366 N   0  0  0  0  0  0  0  0  0  0  0  0
    2.5483   -0.9875   -0.8627 O   0  0  0  0  0  0  0  0  0  0  0  0
   -1.7128   -2.2407   -0.7971 O   0  0  0  0  0  0  0  0  0  0  0  0
    0.2148   -2.2833   -2.4140 O   0  0  0  0  0  0  0  0  0  0  0  0
   -0.0837    1.8046    1.9572 O   0  0  0  0  0  0  0  0  0  0  0  0
   -0.1103   -0.6764    2.3963 O   0  0  0  0  0  0  0  0  0  0  0  0
   -0.2951   -2.0945   -1.0692 S   0  0  0  0  0  0  0  0  0  0  0  0
   -0.6429    0.4877    1.7147 S   0  0  0  0  0  0  0  0  0  0  0  0
   -3.2429    1.6813   -2.7945 Cl  0  0  0  0  0  0  0  0  0  0  0  0
    3.7787    1.2414    1.1762 H   0  0  0  0  0  0  0  0  0  0  0  0
    3.3405    2.5999    0.1169 H   0  0  0  0  0  0  0  0  0  0  0  0
    3.9525    1.0871   -0.5860 H   0  0  0  0  0  0  0  0  0  0  0  0
    0.2901   -4.2480   -0.2977 H   0  0  0  0  0  0  0  0  0  0  0  0
    1.6397   -3.0779   -0.1395 H   0  0  0  0  0  0  0  0  0  0  0  0
    0.2736   -3.0332    1.0213 H   0  0  0  0  0  0  0  0  0  0  0  0
   -2.4823    0.7760    3.1665 H   0  0  0  0  0  0  0  0  0  0  0  0
   -2.8136    1.3948    1.5164 H   0  0  0  0  0  0  0  0  0  0  0  0
   -2.8393   -0.3699    1.8342 H   0  0  0  0  0  0  0  0  0  0  0  0
   -1.7411    1.9817   -0.2870 H   0  0  0  0  0  0  0  0  0  0  0  0
   -0.5908    1.5161   -1.5522 H   0  0  0  0  0  0  0  0  0  0  0  0
   -3.2728    0.1020   -1.0467 H   0  0  0  0  0  0  0  0  0  0  0  0
   -2.0924   -0.3105   -2.3093 H   0  0  0  0  0  0  0  0  0  0  0  0
    1.2348    1.6003    0.4511 H   0  0  0  0  0  0  0  0  0  0  0  0
  1  7  1  0  0  0  0
  1  8  1  0  0  0  0
  1 10  2  0  0  0  0
  2  7  1  0  0  0  0
  2 18  1  0  0  0  0
  2 19  1  0  0  0  0
  2 20  1  0  0  0  0
  3 15  1  0  0  0  0
  3 21  1  0  0  0  0
  3 22  1  0  0  0  0
  3 23  1  0  0  0  0
  4 16  1  0  0  0  0
  4 24  1  0  0  0  0
  4 25  1  0  0  0  0
  4 26  1  0  0  0  0
  5  6  1  0  0  0  0
  5  9  1  0  0  0  0
  5 27  1  0  0  0  0
  5 28  1  0  0  0  0
  6 17  1  0  0  0  0
  6 29  1  0  0  0  0
  6 30  1  0  0  0  0
  7 31  1  0  0  0  0
  8  9  1  0  0  0  0
  8 15  1  0  0  0  0
  9 16  1  0  0  0  0
 11 15  2  0  0  0  0
 12 15  2  0  0  0  0
 13 16  2  0  0  0  0
 14 16  2  0  0  0  0
M  END
$$$$
DrugBank_1956
 OpenBabel01151909533D

 33 33  0  0  0  0  0  0  0  0999 V2000
    0.5636    0.5439   -0.7663 C   0  0  0  0  0  0  0  0  0  0  0  0
    0.3506   -0.1159   -2.1257 C   0  0  0  0  0  0  0  0  0  0  0  0
    0.1339    2.0082   -0.7774 C   0  0  0  0  0  0  0  0  0  0  0  0
    1.0408    0.6628   -3.2444 C   0  0  0  0  0  0  0  0  0  0  0  0
    0.8244    2.7893   -1.8941 C   0  0  0  0  0  0  0  0  0  0  0  0
    0.5978    2.1300   -3.2590 C   0  0  0  0  0  0  0  0  0  0  0  0
    1.3326    4.8505   -5.7669 C   0  0  0  0  0  0  0  0  0  0  0  0
    0.6383    4.0894   -4.6433 C   0  0  0  0  0  0  0  0  0  0  0  0
    0.5929    6.1252   -6.1498 C   0  0  0  0  0  0  0  0  0  0  0  0
    1.3312    2.8600   -4.2912 N   0  0  0  0  0  0  0  0  0  0  0  0
    1.4609    6.0899   -8.6256 O   0  0  0  0  0  0  0  0  0  0  0  0
    2.6017    7.6082   -6.9489 O   0  0  0  0  0  0  0  0  0  0  0  0
    0.2713    8.1074   -7.7286 O   0  0  0  0  0  0  0  0  0  0  0  0
    1.4083    6.9668   -7.4701 S   0  0  0  0  0  0  0  0  0  0  0  0
   -0.0003   -0.0001   -0.0002 H   0  0  0  0  0  0  0  0  0  0  0  0
    1.6233    0.4772   -0.4908 H   0  0  0  0  0  0  0  0  0  0  0  0
    0.7339   -1.1423   -2.1012 H   0  0  0  0  0  0  0  0  0  0  0  0
   -0.7241   -0.1812   -2.3359 H   0  0  0  0  0  0  0  0  0  0  0  0
   -0.9536    2.0687   -0.9086 H   0  0  0  0  0  0  0  0  0  0  0  0
    0.3651    2.4674    0.1903 H   0  0  0  0  0  0  0  0  0  0  0  0
    2.1282    0.5956   -3.1068 H   0  0  0  0  0  0  0  0  0  0  0  0
    0.8129    0.1888   -4.2071 H   0  0  0  0  0  0  0  0  0  0  0  0
    0.4434    3.8179   -1.9023 H   0  0  0  0  0  0  0  0  0  0  0  0
    1.8988    2.8502   -1.6757 H   0  0  0  0  0  0  0  0  0  0  0  0
   -0.4669    2.1774   -3.5038 H   0  0  0  0  0  0  0  0  0  0  0  0
    1.4037    4.1964   -6.6445 H   0  0  0  0  0  0  0  0  0  0  0  0
    2.3614    5.0948   -5.4741 H   0  0  0  0  0  0  0  0  0  0  0  0
    0.5648    4.7025   -3.7394 H   0  0  0  0  0  0  0  0  0  0  0  0
   -0.3742    3.8084   -4.9494 H   0  0  0  0  0  0  0  0  0  0  0  0
   -0.4232    5.9077   -6.4922 H   0  0  0  0  0  0  0  0  0  0  0  0
    0.5410    6.8291   -5.3140 H   0  0  0  0  0  0  0  0  0  0  0  0
    1.4152    2.2694   -5.1159 H   0  0  0  0  0  0  0  0  0  0  0  0
   -0.5863    7.7763   -8.0855 H   0  0  0  0  0  0  0  0  0  0  0  0
  1  2  1  0  0  0  0
  1  3  1  0  0  0  0
  1 15  1  0  0  0  0
  1 16  1  0  0  0  0
  2  4  1  0  0  0  0
  2 17  1  0  0  0  0
  2 18  1  0  0  0  0
  3  5  1  0  0  0  0
  3 19  1  0  0  0  0
  3 20  1  0  0  0  0
  4  6  1  0  0  0  0
  4 21  1  0  0  0  0
  4 22  1  0  0  0  0
  5  6  1  0  0  0  0
  5 23  1  0  0  0  0
  5 24  1  0  0  0  0
  6 10  1  0  0  0  0
  6 25  1  0  0  0  0
  7  8  1  0  0  0  0
  7  9  1  0  0  0  0
  7 26  1  0  0  0  0
  7 27  1  0  0  0  0
  8 10  1  0  0  0  0
  8 28  1  0  0  0  0
  8 29  1  0  0  0  0
  9 14  1  0  0  0  0
  9 30  1  0  0  0  0
  9 31  1  0  0  0  0
 10 32  1  0  0  0  0
 11 14  2  0  0  0  0
 12 14  2  0  0  0  0
 13 14  1  0  0  0  0
 13 33  1  0  0  0  0
M  END
$$$$
DrugBank_1962
 OpenBabel01151909533D

 64 63  0  0  1  0  0  0  0  0999 V2000
    2.2614    1.1920    8.8920 C   0  0  0  0  0  0  0  0  0  0  0  0
    3.1842    3.4432    4.7029 C   0  0  0  0  0  0  0  0  0  0  0  0
    5.2198    2.4465   12.7732 C   0  0  0  0  0  0  0  0  0  0  0  0
    0.1194    5.2098    7.3624 C   0  0  0  0  0  0  0  0  0  0  0  0
    7.6913    7.1009    8.7084 C   0  0  0  0  0  0  0  0  0  0  0  0
    5.4403    6.1966    8.1680 C   0  0  0  0  0  0  0  0  0  0  0  0
    6.1537    6.4201   10.5382 C   0  0  0  0  0  0  0  0  0  0  0  0
    2.3653    1.9436   10.1996 C   0  0  0  0  0  0  0  0  0  0  0  0
    2.9371    4.9346    4.7148 C   0  0  0  0  0  0  0  0  0  0  0  0
    3.8410    2.5766   12.1464 C   0  0  0  0  0  0  0  0  0  0  0  0
    0.8484    4.7329    6.1165 C   0  0  0  0  0  0  0  0  0  0  0  0
    3.7395    1.7795   10.8466 C   0  0  0  0  0  0  0  0  0  0  0  0
    2.2236    5.3866    5.9878 C   0  0  0  0  0  0  0  0  0  0  0  0
    7.1955    4.6947    9.0842 C   0  0  0  0  0  0  0  0  0  0  0  0
    7.6303    4.3724    7.6681 C   0  0  0  0  0  0  0  0  0  0  0  0
    3.2197    1.0699    6.7319 C   0  0  0  0  0  0  0  0  0  0  0  0
    5.6736    1.6054    6.5494 C   0  0  0  0  0  0  0  0  0  0  0  0
    4.3043    1.7306    5.8911 C   0  0  2  0  0  0  0  0  0  0  0  0
    6.6343    6.0686    9.1238 N   0  3  0  0  0  0  0  0  0  0  0  0
    1.4706    0.2885    8.6582 O   0  0  0  0  0  0  0  0  0  0  0  0
    2.7386    2.6606    3.8751 O   0  0  0  0  0  0  0  0  0  0  0  0
    3.1928    1.6863    8.0233 O   0  0  0  0  0  0  0  0  0  0  0  0
    3.9810    3.1173    5.7648 O   0  0  0  0  0  0  0  0  0  0  0  0
    8.1345    3.0475    7.6160 O   0  0  0  0  0  0  0  0  0  0  0  0
    6.6604    2.2286    5.7340 O   0  0  0  0  0  0  0  0  0  0  0  0
    8.2246    2.2462    6.1955 P   0  0  2  0  0  0  0  0  0  0  0  0
    8.9395    0.4324    6.3688 S   0  0  0  0  0  0  0  0  0  0  0  0
    9.4031    3.1593    4.9273 S   0  0  0  0  0  0  0  0  0  0  0  0
    5.9980    2.7913   12.0850 H   0  0  0  0  0  0  0  0  0  0  0  0
    5.2892    3.0353   13.6935 H   0  0  0  0  0  0  0  0  0  0  0  0
    5.4257    1.4010   13.0228 H   0  0  0  0  0  0  0  0  0  0  0  0
   -0.0052    6.2973    7.3522 H   0  0  0  0  0  0  0  0  0  0  0  0
   -0.8716    4.7509    7.4366 H   0  0  0  0  0  0  0  0  0  0  0  0
    0.6861    4.9411    8.2593 H   0  0  0  0  0  0  0  0  0  0  0  0
    8.5376    7.0054    9.3911 H   0  0  0  0  0  0  0  0  0  0  0  0
    7.9884    6.8802    7.6814 H   0  0  0  0  0  0  0  0  0  0  0  0
    7.2379    8.0913    8.7816 H   0  0  0  0  0  0  0  0  0  0  0  0
    4.6922    5.4606    8.4680 H   0  0  0  0  0  0  0  0  0  0  0  0
    5.0494    7.2121    8.2558 H   0  0  0  0  0  0  0  0  0  0  0  0
    5.7999    6.0006    7.1561 H   0  0  0  0  0  0  0  0  0  0  0  0
    5.4025    5.6832   10.8284 H   0  0  0  0  0  0  0  0  0  0  0  0
    7.0181    6.3827   11.2038 H   0  0  0  0  0  0  0  0  0  0  0  0
    5.7263    7.4242   10.5060 H   0  0  0  0  0  0  0  0  0  0  0  0
    2.1751    3.0041    9.9996 H   0  0  0  0  0  0  0  0  0  0  0  0
    1.5911    1.5625   10.8751 H   0  0  0  0  0  0  0  0  0  0  0  0
    3.9053    5.4415    4.6338 H   0  0  0  0  0  0  0  0  0  0  0  0
    2.3270    5.1867    3.8401 H   0  0  0  0  0  0  0  0  0  0  0  0
    3.0867    2.2239   12.8595 H   0  0  0  0  0  0  0  0  0  0  0  0
    3.6333    3.6352   11.9514 H   0  0  0  0  0  0  0  0  0  0  0  0
    0.9565    3.6428    6.1579 H   0  0  0  0  0  0  0  0  0  0  0  0
    0.2412    4.9655    5.2338 H   0  0  0  0  0  0  0  0  0  0  0  0
    3.9281    0.7174   11.0482 H   0  0  0  0  0  0  0  0  0  0  0  0
    4.5185    2.1103   10.1483 H   0  0  0  0  0  0  0  0  0  0  0  0
    2.8359    5.1357    6.8631 H   0  0  0  0  0  0  0  0  0  0  0  0
    2.1149    6.4785    5.9825 H   0  0  0  0  0  0  0  0  0  0  0  0
    8.0347    4.6842    9.7854 H   0  0  0  0  0  0  0  0  0  0  0  0
    6.4045    4.0227    9.4272 H   0  0  0  0  0  0  0  0  0  0  0  0
    6.7713    4.4334    6.9926 H   0  0  0  0  0  0  0  0  0  0  0  0
    8.4044    5.0619    7.3158 H   0  0  0  0  0  0  0  0  0  0  0  0
    3.4216    0.0029    6.8727 H   0  0  0  0  0  0  0  0  0  0  0  0
    2.2336    1.1983    6.2746 H   0  0  0  0  0  0  0  0  0  0  0  0
    5.9601    0.5581    6.6871 H   0  0  0  0  0  0  0  0  0  0  0  0
    5.6911    2.1073    7.5220 H   0  0  0  0  0  0  0  0  0  0  0  0
    4.3128    1.3151    4.8771 H   0  0  0  0  0  0  0  0  0  0  0  0
  1  8  1  0  0  0  0
  1 20  2  0  0  0  0
  1 22  1  0  0  0  0
  2  9  1  0  0  0  0
  2 21  2  0  0  0  0
  2 23  1  0  0  0  0
  3 10  1  0  0  0  0
  3 29  1  0  0  0  0
  3 30  1  0  0  0  0
  3 31  1  0  0  0  0
  4 11  1  0  0  0  0
  4 32  1  0  0  0  0
  4 33  1  0  0  0  0
  4 34  1  0  0  0  0
  5 19  1  0  0  0  0
  5 35  1  0  0  0  0
  5 36  1  0  0  0  0
  5 37  1  0  0  0  0
  6 19  1  0  0  0  0
  6 38  1  0  0  0  0
  6 39  1  0  0  0  0
  6 40  1  0  0  0  0
  7 19  1  0  0  0  0
  7 41  1  0  0  0  0
  7 42  1  0  0  0  0
  7 43  1  0  0  0  0
  8 12  1  0  0  0  0
  8 44  1  0  0  0  0
  8 45  1  0  0  0  0
  9 13  1  0  0  0  0
  9 46  1  0  0  0  0
  9 47  1  0  0  0  0
 10 12  1  0  0  0  0
 10 48  1  0  0  0  0
 10 49  1  0  0  0  0
 11 13  1  0  0  0  0
 11 50  1  0  0  0  0
 11 51  1  0  0  0  0
 12 52  1  0  0  0  0
 12 53  1  0  0  0  0
 13 54  1  0  0  0  0
 13 55  1  0  0  0  0
 14 15  1  0  0  0  0
 14 19  1  0  0  0  0
 14 56  1  0  0  0  0
 14 57  1  0  0  0  0
 15 24  1  0  0  0  0
 15 58  1  0  0  0  0
 15 59  1  0  0  0  0
 16 18  1  0  0  0  0
 16 22  1  0  0  0  0
 16 60  1  0  0  0  0
 16 61  1  0  0  0  0
 17 18  1  0  0  0  0
 17 25  1  0  0  0  0
 17 62  1  0  0  0  0
 17 63  1  0  0  0  0
 18 23  1  0  0  0  0
 18 64  1  6  0  0  0
 24 26  1  0  0  0  0
 25 26  1  0  0  0  0
 26 27  1  1  0  0  0
 26 28  2  0  0  0  0
M  CHG  1  19   1
M  END
$$$$
DrugBank_1966
 OpenBabel01151909533D

 56 58  0  0  1  0  0  0  0  0999 V2000
   -2.5280   -0.8641    0.0799 C   0  0  0  0  0  0  0  0  0  0  0  0
   -5.1668    2.1981   -1.3738 C   0  0  0  0  0  0  0  0  0  0  0  0
   -4.4795   -0.1052   -0.1603 C   0  0  0  0  0  0  0  0  0  0  0  0
   -5.6475    0.4547    0.2200 C   0  0  0  0  0  0  0  0  0  0  0  0
   -2.0210   -4.4985   -6.4502 C   0  0  0  0  0  0  0  0  0  0  0  0
   -3.7189    0.3887   -1.3983 C   0  0  1  0  0  0  0  0  0  0  0  0
    1.0771   -0.2902   -1.8545 C   0  0  2  0  0  0  0  0  0  0  0  0
    0.0348    0.4140   -1.0152 C   0  0  2  0  0  0  0  0  0  0  0  0
    0.3102   -1.5176   -2.3127 C   0  0  2  0  0  0  0  0  0  0  0  0
   -1.2372    0.1506   -1.8058 C   0  0  2  0  0  0  0  0  0  0  0  0
   -5.6800   -3.2486   -2.5036 C   0  0  0  0  0  0  0  0  0  0  0  0
    0.8608   -2.1300   -3.5879 C   0  0  0  0  0  0  0  0  0  0  0  0
   -4.5063   -4.8017   -6.1659 C   0  0  0  0  0  0  0  0  0  0  0  0
   -4.4774   -4.3610   -4.7019 C   0  0  0  0  0  0  0  0  0  0  0  0
   -3.1878   -5.4632   -6.5920 C   0  0  1  0  0  0  0  0  0  0  0  0
   -3.7252   -1.0093    0.5728 N   0  0  0  0  0  0  0  0  0  0  0  0
   -4.0181    1.7788   -1.7952 N   0  0  0  0  0  0  0  0  0  0  0  0
   -6.0364    1.5662   -0.5161 N   0  0  0  0  0  0  0  0  0  0  0  0
   -2.3874    0.0101   -0.9585 N   0  0  0  0  0  0  0  0  0  0  0  0
   -6.3522    0.0186    1.3089 N   0  0  0  0  0  0  0  0  0  0  0  0
   -3.2350   -5.8513   -8.0023 N   0  0  0  0  0  0  0  0  0  0  0  0
   -0.9666   -4.9870   -5.6120 N   0  0  0  0  0  0  0  0  0  0  0  0
   -1.9780   -3.4116   -7.0182 O   0  0  0  0  0  0  0  0  0  0  0  0
    0.6867   -3.1788   -6.3501 O   0  0  0  0  0  0  0  0  0  0  0  0
    1.5070   -5.0780   -4.9156 O   0  0  0  0  0  0  0  0  0  0  0  0
   -1.0387   -1.0743   -2.5303 O   0  0  0  0  0  0  0  0  0  0  0  0
    2.2143   -0.6521   -1.0952 O   0  0  0  0  0  0  0  0  0  0  0  0
    0.3140    1.7990   -0.9216 O   0  0  0  0  0  0  0  0  0  0  0  0
    0.0866   -3.2708   -3.9246 O   0  0  0  0  0  0  0  0  0  0  0  0
   -6.0537   -3.5865   -4.2393 S   0  0  0  0  0  0  0  0  0  0  0  0
    0.4728   -4.1218   -5.2674 S   0  0  0  0  0  0  0  0  0  0  0  0
   -1.6282   -1.4032    0.4119 H   0  0  0  0  0  0  0  0  0  0  0  0
   -5.5292    3.1951   -1.6705 H   0  0  0  0  0  0  0  0  0  0  0  0
   -3.9910   -0.2596   -2.2430 H   0  0  0  0  0  0  0  0  0  0  0  0
    1.3989    0.3402   -2.6927 H   0  0  0  0  0  0  0  0  0  0  0  0
    0.0015    0.0015    0.0011 H   0  0  0  0  0  0  0  0  0  0  0  0
    0.2929   -2.2861   -1.5289 H   0  0  0  0  0  0  0  0  0  0  0  0
   -1.4333    0.9373   -2.5457 H   0  0  0  0  0  0  0  0  0  0  0  0
   -6.5356   -2.7644   -2.0266 H   0  0  0  0  0  0  0  0  0  0  0  0
   -4.8118   -2.5888   -2.4326 H   0  0  0  0  0  0  0  0  0  0  0  0
   -5.4619   -4.1838   -1.9821 H   0  0  0  0  0  0  0  0  0  0  0  0
    1.9009   -2.4389   -3.4472 H   0  0  0  0  0  0  0  0  0  0  0  0
    0.8083   -1.4126   -4.4122 H   0  0  0  0  0  0  0  0  0  0  0  0
   -4.6870   -3.9263   -6.8044 H   0  0  0  0  0  0  0  0  0  0  0  0
   -5.3425   -5.4961   -6.3252 H   0  0  0  0  0  0  0  0  0  0  0  0
   -3.6740   -3.6370   -4.5328 H   0  0  0  0  0  0  0  0  0  0  0  0
   -4.3120   -5.2139   -4.0368 H   0  0  0  0  0  0  0  0  0  0  0  0
   -3.0071   -6.3648   -5.9970 H   0  0  0  0  0  0  0  0  0  0  0  0
   -6.9057    2.0067   -0.2339 H   0  0  0  0  0  0  0  0  0  0  0  0
   -7.2064    0.4761    1.5338 H   0  0  0  0  0  0  0  0  0  0  0  0
   -5.9854   -0.7404    1.8370 H   0  0  0  0  0  0  0  0  0  0  0  0
   -4.0948   -6.2028   -8.3603 H   0  0  0  0  0  0  0  0  0  0  0  0
   -2.3716   -5.9427   -8.4894 H   0  0  0  0  0  0  0  0  0  0  0  0
   -1.0808   -5.9171   -5.1895 H   0  0  0  0  0  0  0  0  0  0  0  0
    2.5910    0.1688   -0.7340 H   0  0  0  0  0  0  0  0  0  0  0  0
   -0.3855    2.1941   -0.3740 H   0  0  0  0  0  0  0  0  0  0  0  0
  1 16  2  0  0  0  0
  1 19  1  0  0  0  0
  1 32  1  0  0  0  0
  2 17  2  0  0  0  0
  2 18  1  0  0  0  0
  2 33  1  0  0  0  0
  3  4  2  0  0  0  0
  3  6  1  0  0  0  0
  3 16  1  0  0  0  0
  4 18  1  0  0  0  0
  4 20  1  0  0  0  0
  5 15  1  0  0  0  0
  5 22  1  0  0  0  0
  5 23  2  0  0  0  0
  6 17  1  0  0  0  0
  6 19  1  0  0  0  0
  6 34  1  6  0  0  0
  7  8  1  1  0  0  0
  7 27  1  0  0  0  0
  7 35  1  0  0  0  0
  8 10  1  6  0  0  0
  8 28  1  0  0  0  0
  8 36  1  0  0  0  0
  9  7  1  1  0  0  0
  9 12  1  0  0  0  0
  9 26  1  0  0  0  0
  9 37  1  0  0  0  0
 10 19  1  0  0  0  0
 10 26  1  0  0  0  0
 10 38  1  6  0  0  0
 11 30  1  0  0  0  0
 11 39  1  0  0  0  0
 11 40  1  0  0  0  0
 11 41  1  0  0  0  0
 12 29  1  0  0  0  0
 12 42  1  0  0  0  0
 12 43  1  0  0  0  0
 13 14  1  0  0  0  0
 13 15  1  0  0  0  0
 13 44  1  0  0  0  0
 13 45  1  0  0  0  0
 14 30  1  0  0  0  0
 14 46  1  0  0  0  0
 14 47  1  0  0  0  0
 15 21  1  0  0  0  0
 15 48  1  1  0  0  0
 18 49  1  0  0  0  0
 20 50  1  0  0  0  0
 20 51  1  0  0  0  0
 21 52  1  0  0  0  0
 21 53  1  0  0  0  0
 22 31  1  0  0  0  0
 22 54  1  0  0  0  0
 24 31  2  0  0  0  0
 25 31  2  0  0  0  0
 27 55  1  0  0  0  0
 28 56  1  0  0  0  0
 29 31  1  0  0  0  0
M  END
$$$$
DrugBank_1971
 OpenBabel01151909533D

 21 20  0  0  1  0  0  0  0  0999 V2000
    0.3364    0.9386    0.2669 C   0  0  0  0  0  0  0  0  0  0  0  0
   -4.8212    2.5227   -0.3037 C   0  0  0  0  0  0  0  0  0  0  0  0
   -1.1495    1.2582   -1.7358 C   0  0  0  0  0  0  0  0  0  0  0  0
   -2.3909    1.4708   -0.8737 C   0  0  0  0  0  0  0  0  0  0  0  0
   -0.1122    0.3565   -1.0571 C   0  0  2  0  0  0  0  0  0  0  0  0
   -0.7081   -0.9476   -0.7631 N   0  0  0  0  0  0  0  0  0  0  0  0
    0.1723    0.4290    1.3665 O   0  0  0  0  0  0  0  0  0  0  0  0
   -3.0229    3.9208   -1.7383 O   0  0  0  0  0  0  0  0  0  0  0  0
    0.9863    2.1156    0.0760 O   0  0  0  0  0  0  0  0  0  0  0  0
   -3.5920    2.5360   -1.7329 S   0  0  2  0  0  0  0  0  0  0  0  0
   -5.6917    3.1253   -0.5719 H   0  0  0  0  0  0  0  0  0  0  0  0
   -4.3399    2.9402    0.5832 H   0  0  0  0  0  0  0  0  0  0  0  0
   -5.1284    1.4931   -0.1086 H   0  0  0  0  0  0  0  0  0  0  0  0
   -1.4525    0.8077   -2.6908 H   0  0  0  0  0  0  0  0  0  0  0  0
   -0.7043    2.2327   -1.9792 H   0  0  0  0  0  0  0  0  0  0  0  0
   -2.8878    0.5210   -0.6537 H   0  0  0  0  0  0  0  0  0  0  0  0
   -2.1441    1.9666    0.0693 H   0  0  0  0  0  0  0  0  0  0  0  0
    0.7557    0.1992   -1.7075 H   0  0  0  0  0  0  0  0  0  0  0  0
   -0.3128   -1.4843   -0.0239 H   0  0  0  0  0  0  0  0  0  0  0  0
   -1.3390   -1.3322   -1.4301 H   0  0  0  0  0  0  0  0  0  0  0  0
    1.0194    2.3652   -0.8722 H   0  0  0  0  0  0  0  0  0  0  0  0
  1  5  1  0  0  0  0
  1  7  2  0  0  0  0
  1  9  1  0  0  0  0
  2 10  1  0  0  0  0
  2 11  1  0  0  0  0
  2 12  1  0  0  0  0
  2 13  1  0  0  0  0
  3  4  1  0  0  0  0
  3  5  1  0  0  0  0
  3 14  1  0  0  0  0
  3 15  1  0  0  0  0
  4 10  1  0  0  0  0
  4 16  1  0  0  0  0
  4 17  1  0  0  0  0
  5  6  1  0  0  0  0
  5 18  1  6  0  0  0
  6 19  1  0  0  0  0
  6 20  1  0  0  0  0
  9 21  1  0  0  0  0
 10  8  2  1  0  0  0
M  END
$$$$
DrugBank_1982
 OpenBabel01151909533D

 24 24  0  0  1  0  0  0  0  0999 V2000
   -1.0158   -0.2647   -2.1982 C   0  0  0  0  0  0  0  0  0  0  0  0
    1.3025    0.0211    0.6337 C   0  0  0  0  0  0  0  0  0  0  0  0
   -0.6720    0.0275   -0.7756 C   0  0  2  0  0  0  0  0  0  0  0  0
    0.7034    0.6716   -0.6202 C   0  0  1  0  0  0  0  0  0  0  0  0
    0.2668   -0.9971    1.0965 C   0  0  2  0  0  0  0  0  0  0  0  0
    0.6211    2.1895   -0.5129 C   0  0  0  0  0  0  0  0  0  0  0  0
   -0.5360   -1.2580   -0.0966 N   0  0  0  0  0  0  0  0  0  0  0  0
   -0.6712   -1.2632   -2.8127 O   0  0  0  0  0  0  0  0  0  0  0  0
   -1.6319   -1.4017    2.8616 O   0  0  0  0  0  0  0  0  0  0  0  0
   -1.0671    0.9756    2.1929 O   0  0  0  0  0  0  0  0  0  0  0  0
   -1.7657    0.7344   -2.7244 O   0  0  0  0  0  0  0  0  0  0  0  0
    0.5471   -0.3733    3.5577 O   0  0  0  0  0  0  0  0  0  0  0  0
   -0.6699   -0.3898    2.4731 S   0  0  0  0  0  0  0  0  0  0  0  0
    2.2270   -0.4969    0.3487 H   0  0  0  0  0  0  0  0  0  0  0  0
    1.5622    0.7514    1.4076 H   0  0  0  0  0  0  0  0  0  0  0  0
   -1.4737    0.6261   -0.3291 H   0  0  0  0  0  0  0  0  0  0  0  0
    1.3486    0.4325   -1.4765 H   0  0  0  0  0  0  0  0  0  0  0  0
    0.7452   -1.9164    1.4486 H   0  0  0  0  0  0  0  0  0  0  0  0
   -0.0127    2.4697    0.3283 H   0  0  0  0  0  0  0  0  0  0  0  0
    0.1992    2.6052   -1.4278 H   0  0  0  0  0  0  0  0  0  0  0  0
    1.6165    2.6066   -0.3605 H   0  0  0  0  0  0  0  0  0  0  0  0
   -1.4447   -1.6488    0.1451 H   0  0  0  0  0  0  0  0  0  0  0  0
   -1.9359    1.4471   -2.0723 H   0  0  0  0  0  0  0  0  0  0  0  0
    0.8942   -1.2585    3.8192 H   0  0  0  0  0  0  0  0  0  0  0  0
  1  3  1  0  0  0  0
  1  8  2  0  0  0  0
  1 11  1  0  0  0  0
  2  4  1  0  0  0  0
  2  5  1  0  0  0  0
  2 14  1  0  0  0  0
  2 15  1  0  0  0  0
  3  4  1  1  0  0  0
  3  7  1  0  0  0  0
  3 16  1  0  0  0  0
  4  6  1  0  0  0  0
  4 17  1  6  0  0  0
  5  7  1  0  0  0  0
  5 13  1  0  0  0  0
  5 18  1  1  0  0  0
  6 19  1  0  0  0  0
  6 20  1  0  0  0  0
  6 21  1  0  0  0  0
  7 22  1  0  0  0  0
  9 13  2  0  0  0  0
 10 13  2  0  0  0  0
 11 23  1  0  0  0  0
 12 13  1  0  0  0  0
 12 24  1  0  0  0  0
M  END
$$$$
DrugBank_1991
 OpenBabel01151909533D

 21 20  0  0  0  0  0  0  0  0999 V2000
   -0.6857    0.5114    0.9081 C   0  0  0  0  0  0  0  0  0  0  0  0
   -2.0338    0.5825    0.2328 C   0  0  0  0  0  0  0  0  0  0  0  0
    1.7782    0.3993    0.6208 C   0  0  0  0  0  0  0  0  0  0  0  0
    2.1832   -1.0531    0.7946 C   0  0  0  0  0  0  0  0  0  0  0  0
    0.4302    0.4683    0.0793 N   0  0  0  0  0  0  0  0  0  0  0  0
   -0.6275    0.4950    2.1405 O   0  0  0  0  0  0  0  0  0  0  0  0
    0.5679   -3.8328    3.0420 O   0  0  0  0  0  0  0  0  0  0  0  0
    3.0934   -3.3078    2.5046 O   0  0  0  0  0  0  0  0  0  0  0  0
    1.5403   -3.9363    0.6005 O   0  0  0  0  0  0  0  0  0  0  0  0
    1.3019   -1.6821    1.7163 O   0  0  0  0  0  0  0  0  0  0  0  0
    1.5395   -3.2435    2.0616 P   0  0  0  0  0  0  0  0  0  0  0  0
    0.3261    0.4902   -1.8195 Br  0  0  0  0  0  0  0  0  0  0  0  0
   -2.4221   -0.4231    0.0507 H   0  0  0  0  0  0  0  0  0  0  0  0
   -2.7351    1.1603    0.8407 H   0  0  0  0  0  0  0  0  0  0  0  0
   -1.9286    1.0855   -0.7338 H   0  0  0  0  0  0  0  0  0  0  0  0
    1.7913    0.9321    1.5769 H   0  0  0  0  0  0  0  0  0  0  0  0
    2.4530    0.9018   -0.0787 H   0  0  0  0  0  0  0  0  0  0  0  0
    3.1972   -1.1131    1.2020 H   0  0  0  0  0  0  0  0  0  0  0  0
    2.1471   -1.5974   -0.1547 H   0  0  0  0  0  0  0  0  0  0  0  0
    3.3699   -2.8591    3.3319 H   0  0  0  0  0  0  0  0  0  0  0  0
    0.7135   -3.9317    0.0726 H   0  0  0  0  0  0  0  0  0  0  0  0
  1  2  1  0  0  0  0
  1  5  1  0  0  0  0
  1  6  2  0  0  0  0
  2 13  1  0  0  0  0
  2 14  1  0  0  0  0
  2 15  1  0  0  0  0
  3  4  1  0  0  0  0
  3  5  1  0  0  0  0
  3 16  1  0  0  0  0
  3 17  1  0  0  0  0
  4 10  1  0  0  0  0
  4 18  1  0  0  0  0
  4 19  1  0  0  0  0
  5 12  1  0  0  0  0
  7 11  2  0  0  0  0
  8 11  1  0  0  0  0
  8 20  1  0  0  0  0
  9 11  1  0  0  0  0
  9 21  1  0  0  0  0
 10 11  1  0  0  0  0
M  END
$$$$
DrugBank_1998
 OpenBabel01151909533D

 27 27  0  0  1  0  0  0  0  0999 V2000
   -0.1891   -1.1270    0.0130 C   0  0  0  0  0  0  0  0  0  0  0  0
    0.9781   -2.0827    0.1612 C   0  0  1  0  0  0  0  0  0  0  0  0
    0.8549   -2.7441    1.5288 C   0  0  1  0  0  0  0  0  0  0  0  0
    1.8486   -3.9009    1.6608 C   0  0  2  0  0  0  0  0  0  0  0  0
    1.8019   -4.8192    0.4410 C   0  0  1  0  0  0  0  0  0  0  0  0
    1.8734   -4.0194   -0.8589 C   0  0  2  0  0  0  0  0  0  0  0  0
   -1.2834   -1.4212   -0.4444 O   0  0  0  0  0  0  0  0  0  0  0  0
    1.5349   -7.6364   -0.2572 O   0  0  0  0  0  0  0  0  0  0  0  0
    3.4908   -6.8743   -1.6430 O   0  0  0  0  0  0  0  0  0  0  0  0
    0.8437   -3.0350   -0.8855 O   0  0  0  0  0  0  0  0  0  0  0  0
    0.1453    0.1094    0.4567 O   0  0  0  0  0  0  0  0  0  0  0  0
    1.1372   -1.7694    2.5323 O   0  0  0  0  0  0  0  0  0  0  0  0
    1.5222   -4.6788    2.8138 O   0  0  0  0  0  0  0  0  0  0  0  0
    1.7017   -4.9297   -1.9439 O   0  0  0  0  0  0  0  0  0  0  0  0
    3.8603   -8.0965    0.5000 O   0  0  0  0  0  0  0  0  0  0  0  0
    2.9121   -5.7136    0.5094 O   0  0  0  0  0  0  0  0  0  0  0  0
    2.8815   -7.1029   -0.3460 S   0  0  0  0  0  0  0  0  0  0  0  0
    1.8950   -1.5006    0.0673 H   0  0  0  0  0  0  0  0  0  0  0  0
   -0.1650   -3.1067    1.7004 H   0  0  0  0  0  0  0  0  0  0  0  0
    2.8652   -3.5232    1.8199 H   0  0  0  0  0  0  0  0  0  0  0  0
    0.8932   -5.4336    0.4691 H   0  0  0  0  0  0  0  0  0  0  0  0
    2.8565   -3.5460   -0.9770 H   0  0  0  0  0  0  0  0  0  0  0  0
    1.0688    0.1432    0.7859 H   0  0  0  0  0  0  0  0  0  0  0  0
    1.0506   -2.2204    3.3860 H   0  0  0  0  0  0  0  0  0  0  0  0
    2.1747   -5.3938    2.8545 H   0  0  0  0  0  0  0  0  0  0  0  0
    1.7505   -4.4020   -2.7556 H   0  0  0  0  0  0  0  0  0  0  0  0
    4.7727   -7.7611    0.6621 H   0  0  0  0  0  0  0  0  0  0  0  0
  1  2  1  0  0  0  0
  1  7  2  0  0  0  0
  1 11  1  0  0  0  0
  2  3  1  1  0  0  0
  2 10  1  0  0  0  0
  2 18  1  0  0  0  0
  3  4  1  1  0  0  0
  3 12  1  0  0  0  0
  3 19  1  0  0  0  0
  4  5  1  6  0  0  0
  4 13  1  0  0  0  0
  4 20  1  0  0  0  0
  5  6  1  6  0  0  0
  5 16  1  0  0  0  0
  5 21  1  0  0  0  0
  6 10  1  0  0  0  0
  6 14  1  0  0  0  0
  6 22  1  6  0  0  0
  8 17  2  0  0  0  0
  9 17  2  0  0  0  0
 11 23  1  0  0  0  0
 12 24  1  0  0  0  0
 13 25  1  0  0  0  0
 14 26  1  0  0  0  0
 15 17  1  0  0  0  0
 15 27  1  0  0  0  0
 16 17  1  0  0  0  0
M  END
$$$$
DrugBank_7020
 OpenBabel01151909533D

 18 18  0  0  0  0  0  0  0  0999 V2000
    1.9416   -0.9307    0.0031 C   0  0  0  0  0  0  0  0  0  0  0  0
    0.7672   -0.4945   -0.5846 C   0  0  0  0  0  0  0  0  0  0  0  0
    2.8745   -1.5530   -0.8019 C   0  0  0  0  0  0  0  0  0  0  0  0
    0.6036   -0.7091   -1.9384 C   0  0  0  0  0  0  0  0  0  0  0  0
    4.1286   -2.0364   -0.2545 C   0  0  0  0  0  0  0  0  0  0  0  0
    2.6878   -1.7498   -2.1242 N   0  0  0  0  0  0  0  0  0  0  0  0
    1.5337   -1.3207   -2.7018 N   0  0  0  0  0  0  0  0  0  0  0  0
    5.0233   -2.6547   -1.1254 N   0  0  0  0  0  0  0  0  0  0  0  0
   -1.4463    0.6017   -1.8930 N   0  0  0  0  0  0  0  0  0  0  0  0
   -0.5969   -0.2628   -2.5385 N   0  0  0  0  0  0  0  0  0  0  0  0
    4.3981   -1.9222    0.9558 O   0  0  0  0  0  0  0  0  0  0  0  0
    2.1131   -0.7831    1.0640 H   0  0  0  0  0  0  0  0  0  0  0  0
    0.0075   -0.0004    0.0124 H   0  0  0  0  0  0  0  0  0  0  0  0
    5.9061   -3.0004   -0.7650 H   0  0  0  0  0  0  0  0  0  0  0  0
    4.8127   -2.7674   -2.1118 H   0  0  0  0  0  0  0  0  0  0  0  0
   -2.4002    0.2704   -2.0294 H   0  0  0  0  0  0  0  0  0  0  0  0
   -1.3957    1.5096   -2.3533 H   0  0  0  0  0  0  0  0  0  0  0  0
   -0.7158   -0.4199   -3.5272 H   0  0  0  0  0  0  0  0  0  0  0  0
  1  2  2  0  0  0  0
  1  3  1  0  0  0  0
  1 12  1  0  0  0  0
  2  4  1  0  0  0  0
  2 13  1  0  0  0  0
  3  5  1  0  0  0  0
  3  6  2  0  0  0  0
  4  7  2  0  0  0  0
  4 10  1  0  0  0  0
  5  8  1  0  0  0  0
  5 11  2  0  0  0  0
  6  7  1  0  0  0  0
  8 14  1  0  0  0  0
  8 15  1  0  0  0  0
  9 10  1  0  0  0  0
  9 16  1  0  0  0  0
  9 17  1  0  0  0  0
 10 18  1  0  0  0  0
M  END
$$$$
DrugBank_7037
 OpenBabel01151909533D

 44 46  0  0  0  0  0  0  0  0999 V2000
    3.7395   -1.9998   -3.8891 C   0  0  0  0  0  0  0  0  0  0  0  0
    4.6243   -0.9597   -4.1510 C   0  0  0  0  0  0  0  0  0  0  0  0
    2.1799   -2.3913    1.5127 C   0  0  0  0  0  0  0  0  0  0  0  0
    2.5828   -0.2976    0.3763 C   0  0  0  0  0  0  0  0  0  0  0  0
    6.2805   -3.3522    0.5166 C   0  0  0  0  0  0  0  0  0  0  0  0
    5.7366   -1.2275    1.5300 C   0  0  0  0  0  0  0  0  0  0  0  0
    1.1007   -1.8184    2.1855 C   0  0  0  0  0  0  0  0  0  0  0  0
    1.5035    0.2752    1.0491 C   0  0  0  0  0  0  0  0  0  0  0  0
    7.4830   -3.3812    1.2228 C   0  0  0  0  0  0  0  0  0  0  0  0
    6.9392   -1.2565    2.2362 C   0  0  0  0  0  0  0  0  0  0  0  0
    3.5486   -2.4298   -2.5807 C   0  0  0  0  0  0  0  0  0  0  0  0
    5.2884   -0.3875   -3.0781 C   0  0  0  0  0  0  0  0  0  0  0  0
    2.9210   -1.6309    0.6081 C   0  0  0  0  0  0  0  0  0  0  0  0
    5.4073   -2.2753    0.6702 C   0  0  0  0  0  0  0  0  0  0  0  0
    0.7624   -0.4852    1.9537 C   0  0  0  0  0  0  0  0  0  0  0  0
    7.8124   -2.3334    2.0826 C   0  0  0  0  0  0  0  0  0  0  0  0
    4.2610   -1.7920   -1.5780 C   0  0  0  0  0  0  0  0  0  0  0  0
    4.0745   -2.2433   -0.1117 C   0  0  0  0  0  0  0  0  0  0  0  0
    5.1291   -0.7782   -1.7937 N   0  0  0  0  0  0  0  0  0  0  0  0
    1.2131    1.1822    4.3032 O   0  0  0  0  0  0  0  0  0  0  0  0
   -0.2161    2.5686    2.7702 O   0  0  0  0  0  0  0  0  0  0  0  0
   10.1135   -0.8174    1.1285 O   0  0  0  0  0  0  0  0  0  0  0  0
    9.8088   -0.1230    3.5243 O   0  0  0  0  0  0  0  0  0  0  0  0
   -1.2540    1.3182    4.6529 O   0  0  0  0  0  0  0  0  0  0  0  0
   11.5062   -1.8404    2.9289 O   0  0  0  0  0  0  0  0  0  0  0  0
   -0.2916    0.0732    2.6093 O   0  0  0  0  0  0  0  0  0  0  0  0
    8.9852   -2.3625    2.7725 O   0  0  0  0  0  0  0  0  0  0  0  0
   -0.0281    1.3766    3.5766 S   0  0  0  0  0  0  0  0  0  0  0  0
   10.0768   -1.1550    2.5395 S   0  0  0  0  0  0  0  0  0  0  0  0
    3.1997   -2.4742   -4.7032 H   0  0  0  0  0  0  0  0  0  0  0  0
    4.7887   -0.6080   -5.1631 H   0  0  0  0  0  0  0  0  0  0  0  0
    2.4364   -3.4306    1.6995 H   0  0  0  0  0  0  0  0  0  0  0  0
    3.1547    0.3025   -0.3267 H   0  0  0  0  0  0  0  0  0  0  0  0
    6.0321   -4.1727   -0.1511 H   0  0  0  0  0  0  0  0  0  0  0  0
    5.0623   -0.3843    1.6558 H   0  0  0  0  0  0  0  0  0  0  0  0
    0.5269   -2.4161    2.8889 H   0  0  0  0  0  0  0  0  0  0  0  0
    1.2449    1.3140    0.8639 H   0  0  0  0  0  0  0  0  0  0  0  0
    8.1591   -4.2231    1.0991 H   0  0  0  0  0  0  0  0  0  0  0  0
    7.1897   -0.4376    2.9046 H   0  0  0  0  0  0  0  0  0  0  0  0
    2.8612   -3.2402   -2.3630 H   0  0  0  0  0  0  0  0  0  0  0  0
    5.9891    0.4270   -3.2292 H   0  0  0  0  0  0  0  0  0  0  0  0
    3.8304   -3.3235   -0.2195 H   0  0  0  0  0  0  0  0  0  0  0  0
   -2.1578    1.2751    4.2611 H   0  0  0  0  0  0  0  0  0  0  0  0
   11.5441   -2.2601    3.8203 H   0  0  0  0  0  0  0  0  0  0  0  0
  1  2  2  0  0  0  0
  1 11  1  0  0  0  0
  1 30  1  0  0  0  0
  2 12  1  0  0  0  0
  2 31  1  0  0  0  0
  3  7  2  0  0  0  0
  3 13  1  0  0  0  0
  3 32  1  0  0  0  0
  4  8  1  0  0  0  0
  4 13  2  0  0  0  0
  4 33  1  0  0  0  0
  5  9  2  0  0  0  0
  5 14  1  0  0  0  0
  5 34  1  0  0  0  0
  6 10  1  0  0  0  0
  6 14  2  0  0  0  0
  6 35  1  0  0  0  0
  7 15  1  0  0  0  0
  7 36  1  0  0  0  0
  8 15  2  0  0  0  0
  8 37  1  0  0  0  0
  9 16  1  0  0  0  0
  9 38  1  0  0  0  0
 10 16  2  0  0  0  0
 10 39  1  0  0  0  0
 11 17  2  0  0  0  0
 11 40  1  0  0  0  0
 12 19  2  0  0  0  0
 12 41  1  0  0  0  0
 13 18  1  0  0  0  0
 14 18  1  0  0  0  0
 15 26  1  0  0  0  0
 16 27  1  0  0  0  0
 17 18  1  0  0  0  0
 17 19  1  0  0  0  0
 18 42  1  0  0  0  0
 20 28  2  0  0  0  0
 21 28  2  0  0  0  0
 22 29  2  0  0  0  0
 23 29  2  0  0  0  0
 24 28  1  0  0  0  0
 24 43  1  0  0  0  0
 25 29  1  0  0  0  0
 25 44  1  0  0  0  0
 26 28  1  0  0  0  0
 27 29  1  0  0  0  0
M  END
$$$$
DrugBank_4659
 OpenBabel01151909533D

 18 19  0  0  0  0  0  0  0  0999 V2000
    0.3587   -0.2956   -0.1677 C   0  0  0  0  0  0  0  0  0  0  0  0
   -0.5746    0.4099    0.4611 C   0  0  0  0  0  0  0  0  0  0  0  0
    0.9787   -1.0866    0.8866 C   0  0  0  0  0  0  0  0  0  0  0  0
    0.6538   -0.1981   -1.6118 C   0  0  0  0  0  0  0  0  0  0  0  0
   -1.4687    1.3675   -0.2466 C   0  0  0  0  0  0  0  0  0  0  0  0
   -0.0491    1.0381   -2.2102 C   0  0  0  0  0  0  0  0  0  0  0  0
    0.3207   -0.7597    2.0556 N   0  0  0  0  0  0  0  0  0  0  0  0
   -1.4256    1.1922   -1.7117 N   0  0  0  0  0  0  0  0  0  0  0  0
    1.8971   -1.8712    0.7257 O   0  0  0  0  0  0  0  0  0  0  0  0
   -0.6911    0.2034    1.8190 O   0  0  0  0  0  0  0  0  0  0  0  0
    1.7331   -0.1212   -1.7821 H   0  0  0  0  0  0  0  0  0  0  0  0
    0.2992   -1.1061   -2.1131 H   0  0  0  0  0  0  0  0  0  0  0  0
   -2.5034    1.2324    0.0867 H   0  0  0  0  0  0  0  0  0  0  0  0
   -1.1798    2.3943    0.0048 H   0  0  0  0  0  0  0  0  0  0  0  0
    0.5227    1.9466   -1.9812 H   0  0  0  0  0  0  0  0  0  0  0  0
   -0.0689    0.9504   -3.3022 H   0  0  0  0  0  0  0  0  0  0  0  0
    0.5332   -1.1559    2.9623 H   0  0  0  0  0  0  0  0  0  0  0  0
   -1.8460    2.0106   -2.1534 H   0  0  0  0  0  0  0  0  0  0  0  0
  1  2  2  0  0  0  0
  1  3  1  0  0  0  0
  1  4  1  0  0  0  0
  2  5  1  0  0  0  0
  2 10  1  0  0  0  0
  3  7  1  0  0  0  0
  3  9  2  0  0  0  0
  4  6  1  0  0  0  0
  4 11  1  0  0  0  0
  4 12  1  0  0  0  0
  5  8  1  0  0  0  0
  5 13  1  0  0  0  0
  5 14  1  0  0  0  0
  6  8  1  0  0  0  0
  6 15  1  0  0  0  0
  6 16  1  0  0  0  0
  7 10  1  0  0  0  0
  7 17  1  0  0  0  0
  8 18  1  0  0  0  0
M  END
$$$$
DrugBank_2017
 OpenBabel01151909533D

 24 24  0  0  0  0  0  0  0  0999 V2000
    1.7257    0.5863   -5.7661 C   0  0  0  0  0  0  0  0  0  0  0  0
    1.0426   -0.4710   -5.1653 C   0  0  0  0  0  0  0  0  0  0  0  0
    2.1853    1.6505   -4.9902 C   0  0  0  0  0  0  0  0  0  0  0  0
    0.8191   -0.4642   -3.7885 C   0  0  0  0  0  0  0  0  0  0  0  0
    1.9618    1.6573   -3.6134 C   0  0  0  0  0  0  0  0  0  0  0  0
    1.2786    0.5999   -3.0125 C   0  0  0  0  0  0  0  0  0  0  0  0
    0.3637   -0.4363   -0.9353 C   0  0  0  0  0  0  0  0  0  0  0  0
    0.2082   -0.1229    0.5405 C   0  0  0  0  0  0  0  0  0  0  0  0
    1.0563    0.6070   -1.6412 N   0  0  0  0  0  0  0  0  0  0  0  0
    2.3000    1.3615    1.0927 O   0  0  0  0  0  0  0  0  0  0  0  0
    2.5454   -1.1598    1.1197 O   0  0  0  0  0  0  0  0  0  0  0  0
    1.2018    0.0007    2.8905 O   0  0  0  0  0  0  0  0  0  0  0  0
    1.7638    0.0395    1.3598 S   0  0  0  0  0  0  0  0  0  0  0  0
    1.8995    0.5810   -6.8383 H   0  0  0  0  0  0  0  0  0  0  0  0
    0.6848   -1.2992   -5.7695 H   0  0  0  0  0  0  0  0  0  0  0  0
    2.7173    2.4738   -5.4583 H   0  0  0  0  0  0  0  0  0  0  0  0
    0.2856   -1.2928   -3.3300 H   0  0  0  0  0  0  0  0  0  0  0  0
    2.3248    2.4918   -3.0187 H   0  0  0  0  0  0  0  0  0  0  0  0
    0.9191   -1.3662   -1.0922 H   0  0  0  0  0  0  0  0  0  0  0  0
   -0.6198   -0.5385   -1.4039 H   0  0  0  0  0  0  0  0  0  0  0  0
   -0.3216   -0.9344    1.0483 H   0  0  0  0  0  0  0  0  0  0  0  0
   -0.3382    0.8112    0.7023 H   0  0  0  0  0  0  0  0  0  0  0  0
    1.4055    1.4008   -1.1103 H   0  0  0  0  0  0  0  0  0  0  0  0
    0.6536    0.7751    3.1595 H   0  0  0  0  0  0  0  0  0  0  0  0
  1  2  2  0  0  0  0
  1  3  1  0  0  0  0
  1 14  1  0  0  0  0
  2  4  1  0  0  0  0
  2 15  1  0  0  0  0
  3  5  2  0  0  0  0
  3 16  1  0  0  0  0
  4  6  2  0  0  0  0
  4 17  1  0  0  0  0
  5  6  1  0  0  0  0
  5 18  1  0  0  0  0
  6  9  1  0  0  0  0
  7  8  1  0  0  0  0
  7  9  1  0  0  0  0
  7 19  1  0  0  0  0
  7 20  1  0  0  0  0
  8 13  1  0  0  0  0
  8 21  1  0  0  0  0
  8 22  1  0  0  0  0
  9 23  1  0  0  0  0
 10 13  2  0  0  0  0
 11 13  2  0  0  0  0
 12 13  1  0  0  0  0
 12 24  1  0  0  0  0
M  END
$$$$
DrugBank_7043
 OpenBabel01151909533D

 55 58  0  0  1  0  0  0  0  0999 V2000
   -4.3598    0.4873    7.4334 C   0  0  0  0  0  0  0  0  0  0  0  0
   -3.0040    0.1481    3.8308 C   0  0  0  0  0  0  0  0  0  0  0  0
   -2.0662    0.8748   -1.3621 C   0  0  0  0  0  0  0  0  0  0  0  0
    1.7457   -1.3466   -1.5634 C   0  0  0  0  0  0  0  0  0  0  0  0
   -1.5327    0.4358   -2.7173 C   0  0  0  0  0  0  0  0  0  0  0  0
    2.7307   -1.2313   -0.3957 C   0  0  0  0  0  0  0  0  0  0  0  0
   -0.9372    1.3531   -0.4347 C   0  0  1  0  0  0  0  0  0  0  0  0
    0.6733   -0.2363   -1.6617 C   0  0  1  0  0  0  0  0  0  0  0  0
   -0.4925   -0.6800   -2.5850 C   0  0  2  0  0  0  0  0  0  0  0  0
   -1.4527    1.7946    0.9612 C   0  0  2  0  0  0  0  0  0  0  0  0
   -0.2905   -0.8443    0.6812 C   0  0  2  0  0  0  0  0  0  0  0  0
   -1.8563    0.5767    1.8059 C   0  0  1  0  0  0  0  0  0  0  0  0
    0.1780    0.2833   -0.2747 C   0  0  2  0  0  0  0  0  0  0  0  0
    2.0363   -1.1139    0.9738 C   0  0  2  0  0  0  0  0  0  0  0  0
   -0.0176   -1.0845   -3.9862 C   0  0  0  0  0  0  0  0  0  0  0  0
   -2.5755    2.8337    0.8861 C   0  0  0  0  0  0  0  0  0  0  0  0
    2.8744   -1.7968    2.0522 C   0  0  0  0  0  0  0  0  0  0  0  0
   -4.1036   -0.1582    6.0940 C   0  0  0  0  0  0  0  0  0  0  0  0
   -3.3321    0.7752    5.1688 C   0  0  0  0  0  0  0  0  0  0  0  0
   -4.0069    1.6230    7.7240 O   0  0  0  0  0  0  0  0  0  0  0  0
   -3.3605   -0.9620    3.4613 O   0  0  0  0  0  0  0  0  0  0  0  0
   -0.7538   -0.3150    1.9289 O   0  0  0  0  0  0  0  0  0  0  0  0
    0.7688   -1.7760    0.9382 O   0  0  0  0  0  0  0  0  0  0  0  0
    1.3196    0.9975    0.2684 O   0  0  0  0  0  0  0  0  0  0  0  0
    1.8952    0.2498    1.3822 O   0  0  0  0  0  0  0  0  0  0  0  0
   -5.0463   -0.3195    8.2797 O   0  0  0  0  0  0  0  0  0  0  0  0
   -2.2468    1.0254    3.1025 O   0  0  0  0  0  0  0  0  0  0  0  0
   -2.7860    1.6834   -1.5305 H   0  0  0  0  0  0  0  0  0  0  0  0
   -2.6239    0.0470   -0.9110 H   0  0  0  0  0  0  0  0  0  0  0  0
    2.3289   -1.3676   -2.4927 H   0  0  0  0  0  0  0  0  0  0  0  0
    1.2522   -2.3258   -1.5009 H   0  0  0  0  0  0  0  0  0  0  0  0
   -2.3724    0.0934   -3.3347 H   0  0  0  0  0  0  0  0  0  0  0  0
   -1.0946    1.2996   -3.2338 H   0  0  0  0  0  0  0  0  0  0  0  0
    3.3481   -2.1387   -0.4231 H   0  0  0  0  0  0  0  0  0  0  0  0
    3.4107   -0.3861   -0.5572 H   0  0  0  0  0  0  0  0  0  0  0  0
   -0.4895    2.2443   -0.8997 H   0  0  0  0  0  0  0  0  0  0  0  0
    1.1751    0.6131   -2.1515 H   0  0  0  0  0  0  0  0  0  0  0  0
   -0.9847   -1.5552   -2.1409 H   0  0  0  0  0  0  0  0  0  0  0  0
   -0.6145    2.2889    1.4736 H   0  0  0  0  0  0  0  0  0  0  0  0
   -1.1094   -1.4244    0.2429 H   0  0  0  0  0  0  0  0  0  0  0  0
   -2.7108    0.0484    1.3675 H   0  0  0  0  0  0  0  0  0  0  0  0
    0.4766   -0.2403   -4.4593 H   0  0  0  0  0  0  0  0  0  0  0  0
   -0.8723   -1.3856   -4.5858 H   0  0  0  0  0  0  0  0  0  0  0  0
    0.6795   -1.9142   -3.9073 H   0  0  0  0  0  0  0  0  0  0  0  0
   -3.4391    2.4020    0.3861 H   0  0  0  0  0  0  0  0  0  0  0  0
   -2.2327    3.7014    0.3278 H   0  0  0  0  0  0  0  0  0  0  0  0
   -2.8568    3.1399    1.8908 H   0  0  0  0  0  0  0  0  0  0  0  0
    2.3771   -1.7095    3.0170 H   0  0  0  0  0  0  0  0  0  0  0  0
    3.8541   -1.3254    2.1124 H   0  0  0  0  0  0  0  0  0  0  0  0
    3.0001   -2.8509    1.8101 H   0  0  0  0  0  0  0  0  0  0  0  0
   -3.5006   -1.0529    6.2934 H   0  0  0  0  0  0  0  0  0  0  0  0
   -5.0443   -0.5189    5.6647 H   0  0  0  0  0  0  0  0  0  0  0  0
   -3.8894    1.7018    4.9919 H   0  0  0  0  0  0  0  0  0  0  0  0
   -2.3756    1.0223    5.6445 H   0  0  0  0  0  0  0  0  0  0  0  0
   -5.2675   -1.2057    7.9222 H   0  0  0  0  0  0  0  0  0  0  0  0
  1 18  1  0  0  0  0
  1 20  2  0  0  0  0
  1 26  1  0  0  0  0
  2 19  1  0  0  0  0
  2 21  2  0  0  0  0
  2 27  1  0  0  0  0
  3  5  1  0  0  0  0
  3  7  1  0  0  0  0
  3 28  1  0  0  0  0
  3 29  1  0  0  0  0
  4  6  1  0  0  0  0
  4  8  1  0  0  0  0
  4 30  1  0  0  0  0
  4 31  1  0  0  0  0
  5  9  1  0  0  0  0
  5 32  1  0  0  0  0
  5 33  1  0  0  0  0
  6 14  1  0  0  0  0
  6 34  1  0  0  0  0
  6 35  1  0  0  0  0
  7 10  1  1  0  0  0
  7 36  1  0  0  0  0
  8  9  1  6  0  0  0
  8 13  1  0  0  0  0
  8 37  1  0  0  0  0
  9 15  1  0  0  0  0
  9 38  1  1  0  0  0
 10 12  1  1  0  0  0
 10 16  1  0  0  0  0
 10 39  1  0  0  0  0
 11 13  1  6  0  0  0
 11 22  1  0  0  0  0
 11 23  1  0  0  0  0
 11 40  1  0  0  0  0
 12 22  1  0  0  0  0
 12 27  1  0  0  0  0
 12 41  1  6  0  0  0
 13  7  1  6  0  0  0
 13 24  1  0  0  0  0
 14 17  1  1  0  0  0
 14 23  1  0  0  0  0
 14 25  1  0  0  0  0
 15 42  1  0  0  0  0
 15 43  1  0  0  0  0
 15 44  1  0  0  0  0
 16 45  1  0  0  0  0
 16 46  1  0  0  0  0
 16 47  1  0  0  0  0
 17 48  1  0  0  0  0
 17 49  1  0  0  0  0
 17 50  1  0  0  0  0
 18 19  1  0  0  0  0
 18 51  1  0  0  0  0
 18 52  1  0  0  0  0
 19 53  1  0  0  0  0
 19 54  1  0  0  0  0
 24 25  1  0  0  0  0
 26 55  1  0  0  0  0
M  END
$$$$
DrugBank_4662
 OpenBabel01151909533D

 64 68  0  0  1  0  0  0  0  0999 V2000
   -3.3026    3.0286   -5.1065 C   0  0  0  0  0  0  0  0  0  0  0  0
   -3.3912    1.0027   -3.8059 C   0  0  0  0  0  0  0  0  0  0  0  0
   -4.6785    3.1422   -4.9665 C   0  0  0  0  0  0  0  0  0  0  0  0
   -4.7648    1.1677   -3.6987 C   0  0  0  0  0  0  0  0  0  0  0  0
   -0.5362    2.2668   -5.7387 C   0  0  0  0  0  0  0  0  0  0  0  0
   -2.6563    1.9457   -4.5182 C   0  0  0  0  0  0  0  0  0  0  0  0
   -1.2345    1.8024   -4.6438 C   0  0  0  0  0  0  0  0  0  0  0  0
   -5.4939    0.5345    1.0984 C   0  0  0  0  0  0  0  0  0  0  0  0
   -5.5659    2.2562   -0.2305 C   0  0  0  0  0  0  0  0  0  0  0  0
    0.7811    1.1905   -4.0332 C   0  0  0  0  0  0  0  0  0  0  0  0
    0.8212    0.7021   -0.5800 C   0  0  0  0  0  0  0  0  0  0  0  0
    1.0692   -0.0848   -1.6543 C   0  0  0  0  0  0  0  0  0  0  0  0
   -0.5091    0.7186    1.5723 C   0  0  0  0  0  0  0  0  0  0  0  0
   -4.8564   -0.3941    2.0702 C   0  0  0  0  0  0  0  0  0  0  0  0
    1.2803    2.1628   -0.5327 C   0  0  0  0  0  0  0  0  0  0  0  0
   -3.4310   -0.1445    2.4878 C   0  0  0  0  0  0  0  0  0  0  0  0
    0.5279   -1.5028   -1.8123 C   0  0  0  0  0  0  0  0  0  0  0  0
   -1.0963   -0.6934    1.8665 C   0  0  2  0  0  0  0  0  0  0  0  0
   -0.1759   -1.1760    0.7173 C   0  0  2  0  0  0  0  0  0  0  0  0
   -4.6894   -4.0635    4.8791 C   0  0  0  0  0  0  0  0  0  0  0  0
   -6.8085    2.3667   -4.1446 C   0  0  0  0  0  0  0  0  0  0  0  0
   -5.5151   -3.2399    3.9139 C   0  0  0  0  0  0  0  0  0  0  0  0
   -0.4808    1.1846   -3.6650 N   0  0  0  0  0  0  0  0  0  0  0  0
   -4.7756    1.6059    0.5952 N   0  0  0  0  0  0  0  0  0  0  0  0
   -6.7547    0.3210    0.7222 N   0  0  0  0  0  0  0  0  0  0  0  0
   -5.5108   -1.4087    2.5494 N   0  0  0  0  0  0  0  0  0  0  0  0
   -5.3618    2.2198   -4.2751 N   0  0  0  0  0  0  0  0  0  0  0  0
    0.1180    0.2258    0.4825 N   0  0  0  0  0  0  0  0  0  0  0  0
   -5.2448    3.3705   -0.9340 N   0  0  0  0  0  0  0  0  0  0  0  0
   -2.5372   -0.7838    1.6702 N   0  0  0  0  0  0  0  0  0  0  0  0
    0.4444    2.9832   -0.9849 O   0  0  0  0  0  0  0  0  0  0  0  0
   -0.6135    1.8236    2.0514 O   0  0  0  0  0  0  0  0  0  0  0  0
    2.4267    2.3297   -0.0484 O   0  0  0  0  0  0  0  0  0  0  0  0
   -3.2313    0.5670    3.4592 O   0  0  0  0  0  0  0  0  0  0  0  0
   -3.4201    5.1259    0.1687 O   0  0  0  0  0  0  0  0  0  0  0  0
   -2.6253    3.0408   -1.1409 O   0  0  0  0  0  0  0  0  0  0  0  0
   -3.6510    4.9339   -2.3921 O   0  0  0  0  0  0  0  0  0  0  0  0
   -4.7291   -2.1575    3.4401 O   0  0  0  0  0  0  0  0  0  0  0  0
   -3.7715    4.1815   -0.9534 P   0  0  0  0  0  0  0  0  0  0  0  0
    1.1328    1.9231   -5.5447 S   0  0  0  0  0  0  0  0  0  0  0  0
   -7.1229    1.5459   -0.3571 S   0  0  0  0  0  0  0  0  0  0  0  0
   -0.9299   -1.8645   -0.7749 S   0  0  0  0  0  0  0  0  0  0  0  0
    2.0453    0.4727   -3.0058 S   0  0  0  0  0  0  0  0  0  0  0  0
   -2.7546    3.7791   -5.6685 H   0  0  0  0  0  0  0  0  0  0  0  0
   -2.9136    0.1483   -3.3353 H   0  0  0  0  0  0  0  0  0  0  0  0
   -5.2469    3.9575   -5.3970 H   0  0  0  0  0  0  0  0  0  0  0  0
   -5.3989    0.4746   -3.1597 H   0  0  0  0  0  0  0  0  0  0  0  0
   -0.9056    2.7763   -6.6182 H   0  0  0  0  0  0  0  0  0  0  0  0
    0.2084   -1.6802   -2.8450 H   0  0  0  0  0  0  0  0  0  0  0  0
    1.3172   -2.2257   -1.5771 H   0  0  0  0  0  0  0  0  0  0  0  0
   -0.8074   -1.0773    2.8510 H   0  0  0  0  0  0  0  0  0  0  0  0
    0.6994   -1.7330    1.0742 H   0  0  0  0  0  0  0  0  0  0  0  0
   -3.8006   -4.4672    4.3863 H   0  0  0  0  0  0  0  0  0  0  0  0
   -4.3745   -3.4557    5.7337 H   0  0  0  0  0  0  0  0  0  0  0  0
   -5.2793   -4.8946    5.2797 H   0  0  0  0  0  0  0  0  0  0  0  0
   -7.2932    1.8525   -4.9791 H   0  0  0  0  0  0  0  0  0  0  0  0
   -7.1526    1.9342   -3.2010 H   0  0  0  0  0  0  0  0  0  0  0  0
   -7.0742    3.4276   -4.1608 H   0  0  0  0  0  0  0  0  0  0  0  0
   -6.4024   -2.8392    4.4130 H   0  0  0  0  0  0  0  0  0  0  0  0
   -5.8282   -3.8484    3.0603 H   0  0  0  0  0  0  0  0  0  0  0  0
   -5.9998    3.7490   -1.5399 H   0  0  0  0  0  0  0  0  0  0  0  0
   -2.8622   -1.3543    0.9030 H   0  0  0  0  0  0  0  0  0  0  0  0
   -1.7110    3.3252   -1.3537 H   0  0  0  0  0  0  0  0  0  0  0  0
   -2.7823    5.3055   -2.6560 H   0  0  0  0  0  0  0  0  0  0  0  0
  1  3  1  0  0  0  0
  1  6  2  0  0  0  0
  1 44  1  0  0  0  0
  2  4  2  0  0  0  0
  2  6  1  0  0  0  0
  2 45  1  0  0  0  0
  3 27  1  0  0  0  0
  3 46  1  0  0  0  0
  4 27  1  0  0  0  0
  4 47  1  0  0  0  0
  5  7  2  0  0  0  0
  5 40  1  0  0  0  0
  5 48  1  0  0  0  0
  6  7  1  0  0  0  0
  7 23  1  0  0  0  0
  8 14  1  0  0  0  0
  8 24  1  0  0  0  0
  8 25  2  0  0  0  0
  9 24  2  0  0  0  0
  9 29  1  0  0  0  0
  9 41  1  0  0  0  0
 10 23  2  0  0  0  0
 10 40  1  0  0  0  0
 10 43  1  0  0  0  0
 11 12  2  0  0  0  0
 11 15  1  0  0  0  0
 11 28  1  0  0  0  0
 12 17  1  0  0  0  0
 12 43  1  0  0  0  0
 13 18  1  0  0  0  0
 13 28  1  0  0  0  0
 13 32  2  0  0  0  0
 14 16  1  0  0  0  0
 14 26  2  0  0  0  0
 15 31  1  0  0  0  0
 15 33  2  0  0  0  0
 16 30  1  0  0  0  0
 16 34  2  0  0  0  0
 17 42  1  0  0  0  0
 17 49  1  0  0  0  0
 17 50  1  0  0  0  0
 18 19  1  6  0  0  0
 18 30  1  0  0  0  0
 18 51  1  0  0  0  0
 19 28  1  0  0  0  0
 19 42  1  0  0  0  0
 19 52  1  1  0  0  0
 20 22  1  0  0  0  0
 20 53  1  0  0  0  0
 20 54  1  0  0  0  0
 20 55  1  0  0  0  0
 21 27  1  0  0  0  0
 21 56  1  0  0  0  0
 21 57  1  0  0  0  0
 21 58  1  0  0  0  0
 22 38  1  0  0  0  0
 22 59  1  0  0  0  0
 22 60  1  0  0  0  0
 25 41  1  0  0  0  0
 26 38  1  0  0  0  0
 29 39  1  0  0  0  0
 29 61  1  0  0  0  0
 30 62  1  0  0  0  0
 35 39  2  0  0  0  0
 36 39  1  0  0  0  0
 36 63  1  0  0  0  0
 37 39  1  0  0  0  0
 37 64  1  0  0  0  0
M  END
$$$$
DrugBank_7047
 OpenBabel01151909533D

 51 55  0  0  0  0  0  0  0  0999 V2000
    5.3269    6.6001   -3.1106 C   0  0  0  0  0  0  0  0  0  0  0  0
    5.1029    5.5473   -2.2236 C   0  0  0  0  0  0  0  0  0  0  0  0
    4.7333    7.8418   -2.8835 C   0  0  0  0  0  0  0  0  0  0  0  0
   -1.9731    0.2428    1.7181 C   0  0  0  0  0  0  0  0  0  0  0  0
    4.5697    3.3487    1.7363 C   0  0  0  0  0  0  0  0  0  0  0  0
   -3.2004    0.7236    2.1807 C   0  0  0  0  0  0  0  0  0  0  0  0
    3.4762    2.5397    1.4480 C   0  0  0  0  0  0  0  0  0  0  0  0
    3.6915    6.9777   -0.8822 C   0  0  0  0  0  0  0  0  0  0  0  0
   -1.9167    1.9388   -0.0284 C   0  0  0  0  0  0  0  0  0  0  0  0
    4.2852    5.7361   -1.1094 C   0  0  0  0  0  0  0  0  0  0  0  0
    3.9156    8.0306   -1.7693 C   0  0  0  0  0  0  0  0  0  0  0  0
   -1.3352    0.8466    0.6201 C   0  0  0  0  0  0  0  0  0  0  0  0
    4.8702    4.4234    0.9068 C   0  0  0  0  0  0  0  0  0  0  0  0
   -3.7541    1.8028    1.5233 C   0  0  0  0  0  0  0  0  0  0  0  0
   -3.1288    2.3948    0.4476 C   0  0  0  0  0  0  0  0  0  0  0  0
    4.0526    4.6448   -0.1897 C   0  0  0  0  0  0  0  0  0  0  0  0
    2.7209    2.8456    0.3274 C   0  0  0  0  0  0  0  0  0  0  0  0
    3.2956    9.3250   -1.5340 C   0  0  0  0  0  0  0  0  0  0  0  0
    1.1736    0.9114    0.7623 C   0  0  0  0  0  0  0  0  0  0  0  0
    0.0436   -1.1544   -0.2389 C   0  0  0  0  0  0  0  0  0  0  0  0
    0.0774   -0.1132   -1.3102 C   0  0  0  0  0  0  0  0  0  0  0  0
   -0.0260    0.3149    0.1447 C   0  0  0  0  0  0  0  0  0  0  0  0
   -4.9714    3.4305    0.8291 C   0  0  0  0  0  0  0  0  0  0  0  0
    6.0439    5.2881    1.2175 C   0  0  0  0  0  0  0  0  0  0  0  0
    2.9819    3.8808   -0.5019 N   0  0  0  0  0  0  0  0  0  0  0  0
    1.6099    2.0166    0.0428 N   0  0  0  0  0  0  0  0  0  0  0  0
    2.5567    9.6029   -0.5839 O   0  0  0  0  0  0  0  0  0  0  0  0
    1.6586    0.4330    1.7824 O   0  0  0  0  0  0  0  0  0  0  0  0
   -4.9366    2.4041    1.8312 O   0  0  0  0  0  0  0  0  0  0  0  0
   -3.8407    3.4417   -0.0542 O   0  0  0  0  0  0  0  0  0  0  0  0
    3.6168   10.2376   -2.4916 O   0  0  0  0  0  0  0  0  0  0  0  0
   -5.0504    4.6361    1.4458 F   0  0  0  0  0  0  0  0  0  0  0  0
   -6.0975    3.2757    0.0889 F   0  0  0  0  0  0  0  0  0  0  0  0
    5.9635    6.4531   -3.9783 H   0  0  0  0  0  0  0  0  0  0  0  0
    5.5727    4.5853   -2.4144 H   0  0  0  0  0  0  0  0  0  0  0  0
    4.9146    8.6548   -3.5817 H   0  0  0  0  0  0  0  0  0  0  0  0
   -1.5136   -0.6065    2.2179 H   0  0  0  0  0  0  0  0  0  0  0  0
    5.1818    3.1333    2.6077 H   0  0  0  0  0  0  0  0  0  0  0  0
   -3.6954    0.2607    3.0268 H   0  0  0  0  0  0  0  0  0  0  0  0
    3.2340    1.6998    2.0910 H   0  0  0  0  0  0  0  0  0  0  0  0
    3.0524    7.1281   -0.0142 H   0  0  0  0  0  0  0  0  0  0  0  0
   -1.4346    2.4143   -0.8760 H   0  0  0  0  0  0  0  0  0  0  0  0
   -0.8515   -1.7601   -0.1543 H   0  0  0  0  0  0  0  0  0  0  0  0
    0.9596   -1.6977   -0.0363 H   0  0  0  0  0  0  0  0  0  0  0  0
    1.0162    0.0439   -1.8291 H   0  0  0  0  0  0  0  0  0  0  0  0
   -0.7949   -0.0183   -1.9469 H   0  0  0  0  0  0  0  0  0  0  0  0
    6.9452    4.9012    0.7257 H   0  0  0  0  0  0  0  0  0  0  0  0
    5.8801    6.3200    0.8801 H   0  0  0  0  0  0  0  0  0  0  0  0
    6.2308    5.3341    2.2986 H   0  0  0  0  0  0  0  0  0  0  0  0
    1.0775    2.2708   -0.7867 H   0  0  0  0  0  0  0  0  0  0  0  0
    3.2041   11.1148   -2.3414 H   0  0  0  0  0  0  0  0  0  0  0  0
  1  2  2  0  0  0  0
  1  3  1  0  0  0  0
  1 34  1  0  0  0  0
  2 10  1  0  0  0  0
  2 35  1  0  0  0  0
  3 11  2  0  0  0  0
  3 36  1  0  0  0  0
  4  6  2  0  0  0  0
  4 12  1  0  0  0  0
  4 37  1  0  0  0  0
  5  7  2  0  0  0  0
  5 13  1  0  0  0  0
  5 38  1  0  0  0  0
  6 14  1  0  0  0  0
  6 39  1  0  0  0  0
  7 17  1  0  0  0  0
  7 40  1  0  0  0  0
  8 10  2  0  0  0  0
  8 11  1  0  0  0  0
  8 41  1  0  0  0  0
  9 12  2  0  0  0  0
  9 15  1  0  0  0  0
  9 42  1  0  0  0  0
 10 16  1  0  0  0  0
 11 18  1  0  0  0  0
 12 22  1  0  0  0  0
 13 16  2  0  0  0  0
 13 24  1  0  0  0  0
 14 15  2  0  0  0  0
 14 29  1  0  0  0  0
 15 30  1  0  0  0  0
 16 25  1  0  0  0  0
 17 25  2  0  0  0  0
 17 26  1  0  0  0  0
 18 27  2  0  0  0  0
 18 31  1  0  0  0  0
 19 22  1  0  0  0  0
 19 26  1  0  0  0  0
 19 28  2  0  0  0  0
 20 21  1  0  0  0  0
 20 22  1  0  0  0  0
 20 43  1  0  0  0  0
 20 44  1  0  0  0  0
 21 22  1  0  0  0  0
 21 45  1  0  0  0  0
 21 46  1  0  0  0  0
 23 29  1  0  0  0  0
 23 30  1  0  0  0  0
 23 32  1  0  0  0  0
 23 33  1  0  0  0  0
 24 47  1  0  0  0  0
 24 48  1  0  0  0  0
 24 49  1  0  0  0  0
 26 50  1  0  0  0  0
 31 51  1  0  0  0  0
M  END
$$$$
DrugBank_7049
 OpenBabel01151909533D

 31 32  0  0  0  0  0  0  0  0999 V2000
   -2.2152   -0.5624    3.2685 C   0  0  0  0  0  0  0  0  0  0  0  0
   -1.3854   -0.8659    4.3140 C   0  0  0  0  0  0  0  0  0  0  0  0
   -0.7789   -1.5943    6.3980 C   0  0  0  0  0  0  0  0  0  0  0  0
   -0.8235    0.1494   -0.0738 C   0  0  0  0  0  0  0  0  0  0  0  0
   -2.2471    1.7784    0.9827 C   0  0  0  0  0  0  0  0  0  0  0  0
   -1.3694    0.5905   -1.4286 C   0  0  0  0  0  0  0  0  0  0  0  0
   -2.7620    2.1828   -0.3953 C   0  0  0  0  0  0  0  0  0  0  0  0
   -1.1939   -3.0165    9.7601 C   0  0  0  0  0  0  0  0  0  0  0  0
   -0.4170   -2.4492    8.5913 C   0  0  0  0  0  0  0  0  0  0  0  0
   -0.1038   -0.0707    2.6344 N   0  0  0  0  0  0  0  0  0  0  0  0
   -1.7530   -1.3650    5.5013 N   0  0  0  0  0  0  0  0  0  0  0  0
   -1.3774   -0.0871    2.2877 N   0  0  0  0  0  0  0  0  0  0  0  0
   -1.8428    0.3681    0.9588 N   0  0  0  0  0  0  0  0  0  0  0  0
    0.4286   -1.4035    6.2713 O   0  0  0  0  0  0  0  0  0  0  0  0
   -0.0960   -0.5735    3.9486 O   0  0  0  0  0  0  0  0  0  0  0  0
   -1.7547    1.9659   -1.3854 O   0  0  0  0  0  0  0  0  0  0  0  0
   -1.3314   -2.1236    7.5369 O   0  0  0  0  0  0  0  0  0  0  0  0
   -3.2861   -0.6483    3.1635 H   0  0  0  0  0  0  0  0  0  0  0  0
   -0.5538   -0.9114   -0.1160 H   0  0  0  0  0  0  0  0  0  0  0  0
    0.0829    0.7208    0.1642 H   0  0  0  0  0  0  0  0  0  0  0  0
   -1.3954    2.4116    1.2623 H   0  0  0  0  0  0  0  0  0  0  0  0
   -3.0379    1.9283    1.7261 H   0  0  0  0  0  0  0  0  0  0  0  0
   -0.5939    0.4864   -2.1941 H   0  0  0  0  0  0  0  0  0  0  0  0
   -2.2264   -0.0197   -1.7389 H   0  0  0  0  0  0  0  0  0  0  0  0
   -3.6683    1.6285   -0.6684 H   0  0  0  0  0  0  0  0  0  0  0  0
   -3.0114    3.2486   -0.4020 H   0  0  0  0  0  0  0  0  0  0  0  0
   -1.9173   -2.2886   10.1380 H   0  0  0  0  0  0  0  0  0  0  0  0
   -1.7285   -3.9250    9.4638 H   0  0  0  0  0  0  0  0  0  0  0  0
   -0.5169   -3.2968   10.5739 H   0  0  0  0  0  0  0  0  0  0  0  0
    0.3046   -3.1822    8.2182 H   0  0  0  0  0  0  0  0  0  0  0  0
    0.1158   -1.5412    8.8889 H   0  0  0  0  0  0  0  0  0  0  0  0
  1  2  2  0  0  0  0
  1 12  1  0  0  0  0
  1 18  1  0  0  0  0
  2 11  1  0  0  0  0
  2 15  1  0  0  0  0
  3 11  1  0  0  0  0
  3 14  2  0  0  0  0
  3 17  1  0  0  0  0
  4  6  1  0  0  0  0
  4 13  1  0  0  0  0
  4 19  1  0  0  0  0
  4 20  1  0  0  0  0
  5  7  1  0  0  0  0
  5 13  1  0  0  0  0
  5 21  1  0  0  0  0
  5 22  1  0  0  0  0
  6 16  1  0  0  0  0
  6 23  1  0  0  0  0
  6 24  1  0  0  0  0
  7 16  1  0  0  0  0
  7 25  1  0  0  0  0
  7 26  1  0  0  0  0
  8  9  1  0  0  0  0
  8 27  1  0  0  0  0
  8 28  1  0  0  0  0
  8 29  1  0  0  0  0
  9 17  1  0  0  0  0
  9 30  1  0  0  0  0
  9 31  1  0  0  0  0
 10 12  2  0  0  0  0
 10 15  1  0  0  0  0
 12 13  1  0  0  0  0
M  END
$$$$
DrugBank_2022
 OpenBabel01151909533D

 36 38  0  0  0  0  0  0  0  0999 V2000
   -2.0738   -2.6562   -0.5091 C   0  0  0  0  0  0  0  0  0  0  0  0
   -1.6510   -1.3253   -0.3907 C   0  0  0  0  0  0  0  0  0  0  0  0
    0.5814   -2.0695    0.0828 C   0  0  0  0  0  0  0  0  0  0  0  0
   -1.1821   -3.7236   -0.3236 C   0  0  0  0  0  0  0  0  0  0  0  0
    0.1415   -3.3907   -0.0416 C   0  0  0  0  0  0  0  0  0  0  0  0
   -0.3249   -1.0318   -0.0903 C   0  0  0  0  0  0  0  0  0  0  0  0
   -1.5427   -5.1526   -0.4184 C   0  0  0  0  0  0  0  0  0  0  0  0
   -0.5779   -6.0917   -0.3187 C   0  0  0  0  0  0  0  0  0  0  0  0
    0.8428   -5.7264   -0.0661 C   0  0  0  0  0  0  0  0  0  0  0  0
   -2.9849   -5.5619   -0.6382 C   0  0  0  0  0  0  0  0  0  0  0  0
   -0.8669   -7.5701   -0.4790 C   0  0  0  0  0  0  0  0  0  0  0  0
   -3.2233   -6.1557   -2.0281 C   0  0  0  0  0  0  0  0  0  0  0  0
   -1.3493   -7.9294   -1.8876 C   0  0  0  0  0  0  0  0  0  0  0  0
   -2.8273   -7.6286   -2.1367 C   0  0  0  0  0  0  0  0  0  0  0  0
    1.0155    2.4215    1.2008 N   0  0  0  0  0  0  0  0  0  0  0  0
    1.7382   -6.5623   -0.0032 O   0  0  0  0  0  0  0  0  0  0  0  0
    2.5559    0.5989    0.2803 O   0  0  0  0  0  0  0  0  0  0  0  0
    1.1236    0.1154    2.3019 O   0  0  0  0  0  0  0  0  0  0  0  0
    1.1230   -4.3828    0.1145 O   0  0  0  0  0  0  0  0  0  0  0  0
    0.0826    0.2604    0.0232 O   0  0  0  0  0  0  0  0  0  0  0  0
    1.3061    0.7416    1.0050 S   0  0  0  0  0  0  0  0  0  0  0  0
   -3.1179   -2.8139   -0.7599 H   0  0  0  0  0  0  0  0  0  0  0  0
   -2.3690   -0.5225   -0.5381 H   0  0  0  0  0  0  0  0  0  0  0  0
    1.6232   -1.8566    0.3061 H   0  0  0  0  0  0  0  0  0  0  0  0
   -3.2871   -6.2791    0.1365 H   0  0  0  0  0  0  0  0  0  0  0  0
   -3.6769   -4.7290   -0.4959 H   0  0  0  0  0  0  0  0  0  0  0  0
    0.0331   -8.1623   -0.2777 H   0  0  0  0  0  0  0  0  0  0  0  0
   -1.5918   -7.8972    0.2766 H   0  0  0  0  0  0  0  0  0  0  0  0
   -4.2948   -6.0831   -2.2541 H   0  0  0  0  0  0  0  0  0  0  0  0
   -2.7035   -5.5684   -2.7951 H   0  0  0  0  0  0  0  0  0  0  0  0
   -0.7329   -7.4281   -2.6443 H   0  0  0  0  0  0  0  0  0  0  0  0
   -1.2024   -9.0070   -2.0338 H   0  0  0  0  0  0  0  0  0  0  0  0
   -3.4370   -8.2183   -1.4405 H   0  0  0  0  0  0  0  0  0  0  0  0
   -3.0856   -7.9808   -3.1431 H   0  0  0  0  0  0  0  0  0  0  0  0
    0.7999    2.9528    0.3474 H   0  0  0  0  0  0  0  0  0  0  0  0
    1.6546    2.9281    1.8265 H   0  0  0  0  0  0  0  0  0  0  0  0
  1  2  2  0  0  0  0
  1  4  1  0  0  0  0
  1 22  1  0  0  0  0
  2  6  1  0  0  0  0
  2 23  1  0  0  0  0
  3  5  1  0  0  0  0
  3  6  2  0  0  0  0
  3 24  1  0  0  0  0
  4  5  2  0  0  0  0
  4  7  1  0  0  0  0
  5 19  1  0  0  0  0
  6 20  1  0  0  0  0
  7  8  2  0  0  0  0
  7 10  1  0  0  0  0
  8  9  1  0  0  0  0
  8 11  1  0  0  0  0
  9 16  2  0  0  0  0
  9 19  1  0  0  0  0
 10 12  1  0  0  0  0
 10 25  1  0  0  0  0
 10 26  1  0  0  0  0
 11 13  1  0  0  0  0
 11 27  1  0  0  0  0
 11 28  1  0  0  0  0
 12 14  1  0  0  0  0
 12 29  1  0  0  0  0
 12 30  1  0  0  0  0
 13 14  1  0  0  0  0
 13 31  1  0  0  0  0
 13 32  1  0  0  0  0
 14 33  1  0  0  0  0
 14 34  1  0  0  0  0
 15 21  1  0  0  0  0
 15 35  1  0  0  0  0
 15 36  1  0  0  0  0
 17 21  2  0  0  0  0
 18 21  2  0  0  0  0
 20 21  1  0  0  0  0
M  END
$$$$
DrugBank_4670
 OpenBabel01151909533D

 13 13  0  0  0  0  0  0  0  0999 V2000
    0.6270   -0.7150   -0.8891 C   0  0  0  0  0  0  0  0  0  0  0  0
   -0.9370    0.7823    0.4740 C   0  0  0  0  0  0  0  0  0  0  0  0
    1.3548   -0.8226    0.2306 C   0  0  0  0  0  0  0  0  0  0  0  0
   -0.1006    0.5708    1.4991 C   0  0  0  0  0  0  0  0  0  0  0  0
   -0.6108    0.1256   -0.8339 C   0  0  0  0  0  0  0  0  0  0  0  0
   -1.3538    0.2652   -1.8851 N   0  0  0  0  0  0  0  0  0  0  0  0
    1.0204   -0.2064    1.4045 N   0  0  0  0  0  0  0  0  0  0  0  0
    0.8989   -1.2067   -1.8142 H   0  0  0  0  0  0  0  0  0  0  0  0
   -1.8219    1.3995    0.5588 H   0  0  0  0  0  0  0  0  0  0  0  0
    2.2634   -1.4095    0.2801 H   0  0  0  0  0  0  0  0  0  0  0  0
   -0.2586    1.0050    2.4783 H   0  0  0  0  0  0  0  0  0  0  0  0
   -2.1468    0.8695   -1.6546 H   0  0  0  0  0  0  0  0  0  0  0  0
    1.6124   -0.3270    2.2161 H   0  0  0  0  0  0  0  0  0  0  0  0
  1  3  2  0  0  0  0
  1  5  1  0  0  0  0
  1  8  1  0  0  0  0
  2  4  2  0  0  0  0
  2  5  1  0  0  0  0
  2  9  1  0  0  0  0
  3  7  1  0  0  0  0
  3 10  1  0  0  0  0
  4  7  1  0  0  0  0
  4 11  1  0  0  0  0
  5  6  2  0  0  0  0
  6 12  1  0  0  0  0
  7 13  1  0  0  0  0
M  END
$$$$
DrugBank_2033
 OpenBabel01151909533D

 14 14  0  0  1  0  0  0  0  0999 V2000
    0.7136   -1.0302   -0.0232 C   0  0  0  0  0  0  0  0  0  0  0  0
   -1.2131    0.3290   -0.8596 C   0  0  0  0  0  0  0  0  0  0  0  0
    0.8375    1.4773   -0.0735 C   0  0  0  0  0  0  0  0  0  0  0  0
    1.2526    0.2116    0.6586 C   0  0  1  0  0  0  0  0  0  0  0  0
   -0.4803   -0.8519   -0.7182 N   0  0  0  0  0  0  0  0  0  0  0  0
   -0.5663    1.4715   -0.4235 N   0  0  0  0  0  0  0  0  0  0  0  0
    1.2686   -2.1239    0.0818 O   0  0  0  0  0  0  0  0  0  0  0  0
   -2.3558    0.3457   -1.3194 O   0  0  0  0  0  0  0  0  0  0  0  0
    0.5432    0.1709    2.6770 I   0  0  0  0  0  0  0  0  0  0  0  0
    1.0377    2.3822    0.5093 H   0  0  0  0  0  0  0  0  0  0  0  0
    1.3869    1.5573   -1.0190 H   0  0  0  0  0  0  0  0  0  0  0  0
    2.3470    0.1504    0.6651 H   0  0  0  0  0  0  0  0  0  0  0  0
   -0.8621   -1.6756   -1.1749 H   0  0  0  0  0  0  0  0  0  0  0  0
   -1.0947    2.3353   -0.3465 H   0  0  0  0  0  0  0  0  0  0  0  0
  1  4  1  0  0  0  0
  1  5  1  0  0  0  0
  1  7  2  0  0  0  0
  2  5  1  0  0  0  0
  2  6  1  0  0  0  0
  2  8  2  0  0  0  0
  3  4  1  0  0  0  0
  3  6  1  0  0  0  0
  3 10  1  0  0  0  0
  3 11  1  0  0  0  0
  4  9  1  0  0  0  0
  4 12  1  1  0  0  0
  5 13  1  0  0  0  0
  6 14  1  0  0  0  0
M  END
$$$$
DrugBank_4682
 OpenBabel01151909533D

 47 50  0  0  1  0  0  0  0  0999 V2000
    2.5299   -0.1118    0.4963 C   0  0  0  0  0  0  0  0  0  0  0  0
   -0.8227   -1.5561   -1.9885 C   0  0  0  0  0  0  0  0  0  0  0  0
    2.7797   -1.2131   -0.5228 C   0  0  0  0  0  0  0  0  0  0  0  0
   -2.2573   -1.3530   -1.4919 C   0  0  0  0  0  0  0  0  0  0  0  0
    1.1755   -0.2870    1.2007 C   0  0  1  0  0  0  0  0  0  0  0  0
    0.2881   -1.4522   -0.9174 C   0  0  1  0  0  0  0  0  0  0  0  0
    1.6762   -1.2596   -1.5832 C   0  0  2  0  0  0  0  0  0  0  0  0
    0.8721    0.8129    2.2550 C   0  0  2  0  0  0  0  0  0  0  0  0
   -0.3658    1.0118   -0.3554 C   0  0  2  0  0  0  0  0  0  0  0  0
    0.4544    2.1432    1.6079 C   0  0  2  0  0  0  0  0  0  0  0  0
   -0.0031   -0.3917    0.1933 C   0  0  2  0  0  0  0  0  0  0  0  0
   -2.4507   -0.0310   -0.7273 C   0  0  2  0  0  0  0  0  0  0  0  0
    2.0076   -2.3627   -2.5956 C   0  0  0  0  0  0  0  0  0  0  0  0
    2.0020    1.0056    3.2686 C   0  0  0  0  0  0  0  0  0  0  0  0
   -3.8539    0.5202   -0.9695 C   0  0  0  0  0  0  0  0  0  0  0  0
    1.2898    4.1915    0.8147 C   0  0  0  0  0  0  0  0  0  0  0  0
   -0.6251    1.9457    0.7003 O   0  0  0  0  0  0  0  0  0  0  0  0
   -1.5217    0.9479   -1.2025 O   0  0  0  0  0  0  0  0  0  0  0  0
   -1.1063   -0.9626    0.9465 O   0  0  0  0  0  0  0  0  0  0  0  0
   -2.3329   -0.2141    0.6868 O   0  0  0  0  0  0  0  0  0  0  0  0
    1.5540    2.8075    0.9986 O   0  0  0  0  0  0  0  0  0  0  0  0
    3.3445   -0.1388    1.2283 H   0  0  0  0  0  0  0  0  0  0  0  0
    2.5939    0.8540   -0.0131 H   0  0  0  0  0  0  0  0  0  0  0  0
   -0.7709   -2.5422   -2.4672 H   0  0  0  0  0  0  0  0  0  0  0  0
   -0.6287   -0.8278   -2.7875 H   0  0  0  0  0  0  0  0  0  0  0  0
    3.7514   -1.0394   -1.0012 H   0  0  0  0  0  0  0  0  0  0  0  0
    2.8499   -2.1799   -0.0079 H   0  0  0  0  0  0  0  0  0  0  0  0
   -2.8966   -1.3641   -2.3843 H   0  0  0  0  0  0  0  0  0  0  0  0
   -2.5676   -2.2050   -0.8749 H   0  0  0  0  0  0  0  0  0  0  0  0
    1.2268   -1.2362    1.7559 H   0  0  0  0  0  0  0  0  0  0  0  0
    0.3005   -2.4323   -0.4146 H   0  0  0  0  0  0  0  0  0  0  0  0
    1.6804   -0.3048   -2.1255 H   0  0  0  0  0  0  0  0  0  0  0  0
   -0.0003    0.4554    2.8211 H   0  0  0  0  0  0  0  0  0  0  0  0
    0.4422    1.4187   -0.9722 H   0  0  0  0  0  0  0  0  0  0  0  0
    0.0816    2.8052    2.3984 H   0  0  0  0  0  0  0  0  0  0  0  0
    2.0125   -3.3264   -2.0935 H   0  0  0  0  0  0  0  0  0  0  0  0
    2.9865   -2.1756   -3.0286 H   0  0  0  0  0  0  0  0  0  0  0  0
    1.2589   -2.3691   -3.3832 H   0  0  0  0  0  0  0  0  0  0  0  0
    2.8949    1.3607    2.7588 H   0  0  0  0  0  0  0  0  0  0  0  0
    2.2207    0.0588    3.7577 H   0  0  0  0  0  0  0  0  0  0  0  0
    1.7019    1.7355    4.0173 H   0  0  0  0  0  0  0  0  0  0  0  0
   -3.9827    1.4547   -0.4256 H   0  0  0  0  0  0  0  0  0  0  0  0
   -4.5971   -0.1975   -0.6258 H   0  0  0  0  0  0  0  0  0  0  0  0
   -4.0003    0.7035   -2.0329 H   0  0  0  0  0  0  0  0  0  0  0  0
    2.1536    4.6690    0.3456 H   0  0  0  0  0  0  0  0  0  0  0  0
    1.0843    4.6560    1.7824 H   0  0  0  0  0  0  0  0  0  0  0  0
    0.4176    4.3038    0.1663 H   0  0  0  0  0  0  0  0  0  0  0  0
  1  3  1  0  0  0  0
  1  5  1  0  0  0  0
  1 22  1  0  0  0  0
  1 23  1  0  0  0  0
  2  4  1  0  0  0  0
  2  6  1  0  0  0  0
  2 24  1  0  0  0  0
  2 25  1  0  0  0  0
  3  7  1  0  0  0  0
  3 26  1  0  0  0  0
  3 27  1  0  0  0  0
  4 12  1  0  0  0  0
  4 28  1  0  0  0  0
  4 29  1  0  0  0  0
  5  8  1  1  0  0  0
  5 30  1  0  0  0  0
  6  7  1  6  0  0  0
  6 11  1  0  0  0  0
  6 31  1  0  0  0  0
  7 13  1  0  0  0  0
  7 32  1  6  0  0  0
  8 10  1  6  0  0  0
  8 14  1  0  0  0  0
  8 33  1  0  0  0  0
  9 11  1  1  0  0  0
  9 17  1  0  0  0  0
  9 18  1  0  0  0  0
  9 34  1  0  0  0  0
 10 17  1  0  0  0  0
 10 21  1  0  0  0  0
 10 35  1  1  0  0  0
 11  5  1  1  0  0  0
 11 19  1  0  0  0  0
 12 15  1  6  0  0  0
 12 18  1  0  0  0  0
 12 20  1  0  0  0  0
 13 36  1  0  0  0  0
 13 37  1  0  0  0  0
 13 38  1  0  0  0  0
 14 39  1  0  0  0  0
 14 40  1  0  0  0  0
 14 41  1  0  0  0  0
 15 42  1  0  0  0  0
 15 43  1  0  0  0  0
 15 44  1  0  0  0  0
 16 21  1  0  0  0  0
 16 45  1  0  0  0  0
 16 46  1  0  0  0  0
 16 47  1  0  0  0  0
 19 20  1  0  0  0  0
M  END
$$$$
DrugBank_7079
 OpenBabel01151909533D

 26 27  0  0  1  0  0  0  0  0999 V2000
    0.9686   -4.0475    0.9217 C   0  0  0  0  0  0  0  0  0  0  0  0
    0.7455   -0.6419    0.5819 C   0  0  0  0  0  0  0  0  0  0  0  0
    2.2516   -4.8856    1.0803 C   0  0  0  0  0  0  0  0  0  0  0  0
    1.4326   -1.8011   -0.1067 C   0  0  1  0  0  0  0  0  0  0  0  0
    3.0101   -3.5675    0.8873 C   0  0  2  0  0  0  0  0  0  0  0  0
    2.7822   -1.4627   -0.7699 C   0  0  0  0  0  0  0  0  0  0  0  0
    2.6171   -1.0083   -2.2206 C   0  0  0  0  0  0  0  0  0  0  0  0
    3.6028   -0.4249    0.0130 C   0  0  0  0  0  0  0  0  0  0  0  0
    1.6997   -2.9033    0.8042 N   0  0  0  0  0  0  0  0  0  0  0  0
   -0.2135   -4.2825    0.8140 O   0  0  0  0  0  0  0  0  0  0  0  0
    0.3879    0.3891    0.0318 O   0  0  0  0  0  0  0  0  0  0  0  0
    5.0814   -2.8723   -0.6164 O   0  0  0  0  0  0  0  0  0  0  0  0
    3.1050   -3.9509   -1.7440 O   0  0  0  0  0  0  0  0  0  0  0  0
    0.5798   -0.8995    1.9023 O   0  0  0  0  0  0  0  0  0  0  0  0
    3.6515   -3.0925   -0.7094 S   0  0  0  0  0  0  0  0  0  0  0  0
    2.3548   -5.3412    2.0696 H   0  0  0  0  0  0  0  0  0  0  0  0
    2.3844   -5.6460    0.3067 H   0  0  0  0  0  0  0  0  0  0  0  0
    0.7096   -2.1697   -0.9165 H   0  0  0  0  0  0  0  0  0  0  0  0
    3.6102   -3.2165    1.7323 H   0  0  0  0  0  0  0  0  0  0  0  0
    3.5929   -0.7840   -2.6375 H   0  0  0  0  0  0  0  0  0  0  0  0
    1.9944   -0.1207   -2.2477 H   0  0  0  0  0  0  0  0  0  0  0  0
    2.1484   -1.8024   -2.7919 H   0  0  0  0  0  0  0  0  0  0  0  0
    4.5379   -0.2328   -0.5069 H   0  0  0  0  0  0  0  0  0  0  0  0
    3.8155   -0.8052    1.0089 H   0  0  0  0  0  0  0  0  0  0  0  0
    3.0379    0.5005    0.0931 H   0  0  0  0  0  0  0  0  0  0  0  0
    0.9330   -1.7802    2.1509 H   0  0  0  0  0  0  0  0  0  0  0  0
  1  3  1  0  0  0  0
  1  9  1  0  0  0  0
  1 10  2  0  0  0  0
  2  4  1  0  0  0  0
  2 11  2  0  0  0  0
  2 14  1  0  0  0  0
  3  5  1  0  0  0  0
  3 16  1  0  0  0  0
  3 17  1  0  0  0  0
  4  6  1  0  0  0  0
  4  9  1  0  0  0  0
  4 18  1  6  0  0  0
  5  9  1  0  0  0  0
  5 15  1  0  0  0  0
  5 19  1  1  0  0  0
  6  7  1  0  0  0  0
  6  8  1  0  0  0  0
  6 15  1  0  0  0  0
  7 20  1  0  0  0  0
  7 21  1  0  0  0  0
  7 22  1  0  0  0  0
  8 23  1  0  0  0  0
  8 24  1  0  0  0  0
  8 25  1  0  0  0  0
 12 15  2  0  0  0  0
 13 15  2  0  0  0  0
 14 26  1  0  0  0  0
M  END
$$$$
DrugBank_4702
 OpenBabel01151909533D

 63 66  0  0  1  0  0  0  0  0999 V2000
   -3.3948    1.1215    3.4484 C   0  0  0  0  0  0  0  0  0  0  0  0
   -1.9360    1.0313    5.3722 C   0  0  0  0  0  0  0  0  0  0  0  0
   -4.3650    1.7676    4.2144 C   0  0  0  0  0  0  0  0  0  0  0  0
   -2.9063    1.6774    6.1382 C   0  0  0  0  0  0  0  0  0  0  0  0
   -3.3701   -2.9948    5.9630 C   0  0  0  0  0  0  0  0  0  0  0  0
   -4.9898   -1.8618    4.5739 C   0  0  0  0  0  0  0  0  0  0  0  0
   -5.2366   -1.8439    6.9772 C   0  0  0  0  0  0  0  0  0  0  0  0
   -2.1803    0.7533    4.0273 C   0  0  0  0  0  0  0  0  0  0  0  0
   -3.8278   -2.6231    4.6989 C   0  0  0  0  0  0  0  0  0  0  0  0
   -4.0745   -2.6052    7.1021 C   0  0  0  0  0  0  0  0  0  0  0  0
   -5.6943   -1.4721    5.7131 C   0  0  0  0  0  0  0  0  0  0  0  0
   -4.1208    2.0456    5.5592 C   0  0  0  0  0  0  0  0  0  0  0  0
   -1.1924    2.3857    0.3222 C   0  0  0  0  0  0  0  0  0  0  0  0
   -1.2094    3.0045   -1.7194 C   0  0  0  0  0  0  0  0  0  0  0  0
   -0.0051   -0.2709    1.0622 C   0  0  0  0  0  0  0  0  0  0  0  0
   -0.2476   -1.7683    1.1822 C   0  0  0  0  0  0  0  0  0  0  0  0
   -1.1188    0.0477    3.1904 C   0  0  1  0  0  0  0  0  0  0  0  0
   -1.3168   -1.4879    3.2695 C   0  0  2  0  0  0  0  0  0  0  0  0
   -3.9204   -3.8538    2.5014 C   0  0  0  0  0  0  0  0  0  0  0  0
   -0.7369    1.9263    1.6607 C   0  0  0  0  0  0  0  0  0  0  0  0
   -3.0645   -3.0449    3.4660 C   0  0  1  0  0  0  0  0  0  0  0  0
   -3.5854   -3.0020    8.4541 C   0  0  0  0  0  0  0  0  0  0  0  0
   -6.9369   -0.6581    5.5790 C   0  0  0  0  0  0  0  0  0  0  0  0
   -0.3716    2.6331   -0.6696 N   0  0  0  0  0  0  0  0  0  0  0  0
   -2.5081    2.5552    0.0147 N   0  0  0  0  0  0  0  0  0  0  0  0
   -2.5272    2.9504   -1.2874 N   0  0  0  0  0  0  0  0  0  0  0  0
   -1.0453    0.4947    1.7746 N   0  0  0  0  0  0  0  0  0  0  0  0
   -0.8398    3.3258   -2.8423 O   0  0  0  0  0  0  0  0  0  0  0  0
   -5.2091    3.1279   -1.3437 O   0  0  0  0  0  0  0  0  0  0  0  0
   -0.2749   -2.1582    2.5535 O   0  0  0  0  0  0  0  0  0  0  0  0
   -3.8809    2.3685   -3.4660 O   0  0  0  0  0  0  0  0  0  0  0  0
   -3.7313    4.7842   -2.7446 O   0  0  0  0  0  0  0  0  0  0  0  0
   -2.6068   -1.8773    2.8024 O   0  0  0  0  0  0  0  0  0  0  0  0
   -5.0515    2.6684    6.2942 F   0  0  0  0  0  0  0  0  0  0  0  0
   -2.4388   -3.7438    8.4255 F   0  0  0  0  0  0  0  0  0  0  0  0
   -3.3028   -1.9409    9.2664 F   0  0  0  0  0  0  0  0  0  0  0  0
   -4.4925   -3.7568    9.1400 F   0  0  0  0  0  0  0  0  0  0  0  0
   -7.2648   -0.3688    4.2849 F   0  0  0  0  0  0  0  0  0  0  0  0
   -8.0452   -1.2624    6.1006 F   0  0  0  0  0  0  0  0  0  0  0  0
   -6.8453    0.5478    6.2117 F   0  0  0  0  0  0  0  0  0  0  0  0
   -3.9357    3.2949   -2.1339 P   0  0  0  0  0  0  0  0  0  0  0  0
   -3.5945    0.9085    2.4015 H   0  0  0  0  0  0  0  0  0  0  0  0
   -0.9926    0.7485    5.8318 H   0  0  0  0  0  0  0  0  0  0  0  0
   -5.3102    2.0549    3.7637 H   0  0  0  0  0  0  0  0  0  0  0  0
   -2.7167    1.8937    7.1854 H   0  0  0  0  0  0  0  0  0  0  0  0
   -2.4643   -3.5887    6.0610 H   0  0  0  0  0  0  0  0  0  0  0  0
   -5.3466   -1.5720    3.5881 H   0  0  0  0  0  0  0  0  0  0  0  0
   -5.7859   -1.5400    7.8650 H   0  0  0  0  0  0  0  0  0  0  0  0
    0.9838   -0.0335    1.4766 H   0  0  0  0  0  0  0  0  0  0  0  0
    0.0006    0.0007    0.0002 H   0  0  0  0  0  0  0  0  0  0  0  0
   -1.1776   -2.0708    0.6863 H   0  0  0  0  0  0  0  0  0  0  0  0
    0.5693   -2.3150    0.6998 H   0  0  0  0  0  0  0  0  0  0  0  0
   -0.1368    0.2754    3.6701 H   0  0  0  0  0  0  0  0  0  0  0  0
   -1.2390   -1.8070    4.3189 H   0  0  0  0  0  0  0  0  0  0  0  0
   -4.8191   -3.3032    2.2053 H   0  0  0  0  0  0  0  0  0  0  0  0
   -4.2291   -4.8098    2.9391 H   0  0  0  0  0  0  0  0  0  0  0  0
   -3.3475   -4.0972    1.5998 H   0  0  0  0  0  0  0  0  0  0  0  0
   -1.2630    2.4916    2.4338 H   0  0  0  0  0  0  0  0  0  0  0  0
    0.3394    2.0924    1.7516 H   0  0  0  0  0  0  0  0  0  0  0  0
   -2.1796   -3.6345    3.7333 H   0  0  0  0  0  0  0  0  0  0  0  0
   -3.3397    2.4086    0.5694 H   0  0  0  0  0  0  0  0  0  0  0  0
   -4.5728    2.4937   -4.1500 H   0  0  0  0  0  0  0  0  0  0  0  0
   -4.3975    5.1438   -3.3684 H   0  0  0  0  0  0  0  0  0  0  0  0
  1  3  2  0  0  0  0
  1  8  1  0  0  0  0
  1 42  1  0  0  0  0
  2  4  1  0  0  0  0
  2  8  2  0  0  0  0
  2 43  1  0  0  0  0
  3 12  1  0  0  0  0
  3 44  1  0  0  0  0
  4 12  2  0  0  0  0
  4 45  1  0  0  0  0
  5  9  2  0  0  0  0
  5 10  1  0  0  0  0
  5 46  1  0  0  0  0
  6  9  1  0  0  0  0
  6 11  2  0  0  0  0
  6 47  1  0  0  0  0
  7 10  2  0  0  0  0
  7 11  1  0  0  0  0
  7 48  1  0  0  0  0
  8 17  1  0  0  0  0
  9 21  1  0  0  0  0
 10 22  1  0  0  0  0
 11 23  1  0  0  0  0
 12 34  1  0  0  0  0
 13 20  1  0  0  0  0
 13 24  2  0  0  0  0
 13 25  1  0  0  0  0
 14 24  1  0  0  0  0
 14 26  1  0  0  0  0
 14 28  2  0  0  0  0
 15 16  1  0  0  0  0
 15 27  1  0  0  0  0
 15 49  1  0  0  0  0
 15 50  1  0  0  0  0
 16 30  1  0  0  0  0
 16 51  1  0  0  0  0
 16 52  1  0  0  0  0
 17 18  1  1  0  0  0
 17 27  1  0  0  0  0
 17 53  1  0  0  0  0
 18 30  1  0  0  0  0
 18 33  1  0  0  0  0
 18 54  1  1  0  0  0
 19 21  1  0  0  0  0
 19 55  1  0  0  0  0
 19 56  1  0  0  0  0
 19 57  1  0  0  0  0
 20 27  1  0  0  0  0
 20 58  1  0  0  0  0
 20 59  1  0  0  0  0
 21 33  1  0  0  0  0
 21 60  1  1  0  0  0
 22 35  1  0  0  0  0
 22 36  1  0  0  0  0
 22 37  1  0  0  0  0
 23 38  1  0  0  0  0
 23 39  1  0  0  0  0
 23 40  1  0  0  0  0
 25 26  1  0  0  0  0
 25 61  1  0  0  0  0
 26 41  1  0  0  0  0
 29 41  2  0  0  0  0
 31 41  1  0  0  0  0
 31 62  1  0  0  0  0
 32 41  1  0  0  0  0
 32 63  1  0  0  0  0
M  END
$$$$
DrugBank_2048
 OpenBabel01151909533D

 22 22  0  0  1  0  0  0  0  0999 V2000
    0.6988    0.4117    0.9830 C   0  0  1  0  0  0  0  0  0  0  0  0
   -0.6633    1.0045    0.6136 C   0  0  1  0  0  0  0  0  0  0  0  0
    1.3243   -0.2971   -0.2098 C   0  0  2  0  0  0  0  0  0  0  0  0
   -1.5391   -0.0390   -0.0912 C   0  0  1  0  0  0  0  0  0  0  0  0
    0.3421   -1.2441   -0.8694 C   0  0  1  0  0  0  0  0  0  0  0  0
   -2.8507    0.5652   -0.5829 C   0  0  0  0  0  0  0  0  0  0  0  0
   -0.8580   -0.5733   -1.2295 O   0  0  0  0  0  0  0  0  0  0  0  0
    1.5829    1.4576    1.3837 O   0  0  0  0  0  0  0  0  0  0  0  0
   -1.3273    1.4444    1.7952 O   0  0  0  0  0  0  0  0  0  0  0  0
   -3.5991   -0.4480   -1.2294 O   0  0  0  0  0  0  0  0  0  0  0  0
    2.3909   -1.0228    0.2288 F   0  0  0  0  0  0  0  0  0  0  0  0
    0.8994   -1.7071   -2.0216 F   0  0  0  0  0  0  0  0  0  0  0  0
    0.6120   -0.2736    1.8335 H   0  0  0  0  0  0  0  0  0  0  0  0
   -0.5158    1.8786   -0.0331 H   0  0  0  0  0  0  0  0  0  0  0  0
    1.7095    0.4283   -0.9350 H   0  0  0  0  0  0  0  0  0  0  0  0
   -1.7872   -0.8557    0.5983 H   0  0  0  0  0  0  0  0  0  0  0  0
    0.1239   -2.1146   -0.2412 H   0  0  0  0  0  0  0  0  0  0  0  0
   -2.6476    1.3698   -1.2896 H   0  0  0  0  0  0  0  0  0  0  0  0
   -3.4217    0.9521    0.2611 H   0  0  0  0  0  0  0  0  0  0  0  0
    2.4259    1.0341    1.6060 H   0  0  0  0  0  0  0  0  0  0  0  0
   -0.7561    2.1158    2.1994 H   0  0  0  0  0  0  0  0  0  0  0  0
   -4.4282   -0.0406   -1.5334 H   0  0  0  0  0  0  0  0  0  0  0  0
  1  2  1  6  0  0  0
  1  8  1  0  0  0  0
  1 13  1  0  0  0  0
  2  4  1  6  0  0  0
  2  9  1  0  0  0  0
  2 14  1  0  0  0  0
  3  1  1  1  0  0  0
  3 11  1  0  0  0  0
  3 15  1  0  0  0  0
  4  6  1  0  0  0  0
  4  7  1  0  0  0  0
  4 16  1  1  0  0  0
  5  3  1  1  0  0  0
  5  7  1  0  0  0  0
  5 12  1  0  0  0  0
  5 17  1  0  0  0  0
  6 10  1  0  0  0  0
  6 18  1  0  0  0  0
  6 19  1  0  0  0  0
  8 20  1  0  0  0  0
  9 21  1  0  0  0  0
 10 22  1  0  0  0  0
M  END
$$$$
DrugBank_2052
 OpenBabel01151909533D

 50 51  0  0  1  0  0  0  0  0999 V2000
   -0.3896    1.1297   -1.6723 C   0  0  0  0  0  0  0  0  0  0  0  0
    0.5369    0.8141   -0.7579 C   0  0  0  0  0  0  0  0  0  0  0  0
    1.5168    1.8833   -0.3340 C   0  0  0  0  0  0  0  0  0  0  0  0
   -1.4195    0.1387   -2.1153 C   0  0  2  0  0  0  0  0  0  0  0  0
    2.4850   -5.1334    0.7685 C   0  0  1  0  0  0  0  0  0  0  0  0
   -1.4766   -1.0400   -1.1400 C   0  0  2  0  0  0  0  0  0  0  0  0
    1.2364   -4.4831    0.1625 C   0  0  1  0  0  0  0  0  0  0  0  0
    1.0988   -3.0230    0.6017 C   0  0  2  0  0  0  0  0  0  0  0  0
    1.2441   -2.8955    2.1200 C   0  0  2  0  0  0  0  0  0  0  0  0
    2.5805   -4.8539    2.2735 C   0  0  2  0  0  0  0  0  0  0  0  0
   -0.0617   -1.4831   -0.7535 C   0  0  1  0  0  0  0  0  0  0  0  0
    1.2236   -1.4417    2.5822 C   0  0  0  0  0  0  0  0  0  0  0  0
    2.4176   -6.6037    0.5474 N   0  0  0  0  0  0  0  0  0  0  0  0
    1.7901    2.7448   -1.2181 O   0  0  0  0  0  0  0  0  0  0  0  0
    4.9178   -6.7420    0.1534 O   0  0  0  0  0  0  0  0  0  0  0  0
   -4.1930   -1.5586   -0.4177 O   0  0  0  0  0  0  0  0  0  0  0  0
    1.5067   -0.3361    6.1938 O   0  0  0  0  0  0  0  0  0  0  0  0
    1.9422    1.7843    0.8526 O   0  0  0  0  0  0  0  0  0  0  0  0
    3.5264   -8.7459   -0.1538 O   0  0  0  0  0  0  0  0  0  0  0  0
    3.3932   -6.8989   -1.7715 O   0  0  0  0  0  0  0  0  0  0  0  0
   -4.1961   -3.4842   -1.9388 O   0  0  0  0  0  0  0  0  0  0  0  0
   -4.1843   -1.2066   -2.8519 O   0  0  0  0  0  0  0  0  0  0  0  0
    0.0656    0.6121    4.4485 O   0  0  0  0  0  0  0  0  0  0  0  0
    2.5055    0.7417    4.2214 O   0  0  0  0  0  0  0  0  0  0  0  0
    0.6858   -0.4127   -0.1589 O   0  0  0  0  0  0  0  0  0  0  0  0
    2.4883   -3.4549    2.5411 O   0  0  0  0  0  0  0  0  0  0  0  0
   -1.0633   -0.3212   -3.4182 O   0  0  0  0  0  0  0  0  0  0  0  0
    1.3457   -4.5311   -1.2613 O   0  0  0  0  0  0  0  0  0  0  0  0
    3.8399   -5.3424    2.7347 O   0  0  0  0  0  0  0  0  0  0  0  0
   -0.1804   -2.5554    0.1820 O   0  0  0  0  0  0  0  0  0  0  0  0
   -2.1964   -2.1145   -1.7336 O   0  0  0  0  0  0  0  0  0  0  0  0
    1.3516   -1.4152    3.9920 O   0  0  0  0  0  0  0  0  0  0  0  0
    3.6921   -7.3145   -0.4019 S   0  0  0  0  0  0  0  0  0  0  0  0
   -3.8339   -2.0824   -1.7347 S   0  0  0  0  0  0  0  0  0  0  0  0
    1.3620    0.0252    4.7844 S   0  0  0  0  0  0  0  0  0  0  0  0
   -0.4191    2.1245   -2.1128 H   0  0  0  0  0  0  0  0  0  0  0  0
   -2.3738    0.6395   -2.1817 H   0  0  0  0  0  0  0  0  0  0  0  0
    3.3844   -4.7710    0.2541 H   0  0  0  0  0  0  0  0  0  0  0  0
   -2.0471   -0.7222   -0.2467 H   0  0  0  0  0  0  0  0  0  0  0  0
    0.3333   -5.0458    0.4317 H   0  0  0  0  0  0  0  0  0  0  0  0
    1.8599   -2.4240    0.0853 H   0  0  0  0  0  0  0  0  0  0  0  0
    0.4224   -3.4167    2.6289 H   0  0  0  0  0  0  0  0  0  0  0  0
    1.7931   -5.3841    2.8247 H   0  0  0  0  0  0  0  0  0  0  0  0
    0.4777   -1.8280   -1.6121 H   0  0  0  0  0  0  0  0  0  0  0  0
    0.2813   -0.9740    2.2970 H   0  0  0  0  0  0  0  0  0  0  0  0
    2.0550   -0.8971    2.1345 H   0  0  0  0  0  0  0  0  0  0  0  0
    2.1460   -7.1203    1.3890 H   0  0  0  0  0  0  0  0  0  0  0  0
   -1.7432   -0.9609   -3.6842 H   0  0  0  0  0  0  0  0  0  0  0  0
    1.4075   -5.4683   -1.4985 H   0  0  0  0  0  0  0  0  0  0  0  0
    3.8755   -5.1544    3.6847 H   0  0  0  0  0  0  0  0  0  0  0  0
  1  2  2  0  0  0  0
  1  4  1  0  0  0  0
  1 36  1  0  0  0  0
  2  3  1  0  0  0  0
  2 25  1  0  0  0  0
  3 14  1  0  0  0  0
  3 18  2  0  0  0  0
  4  6  1  1  0  0  0
  4 27  1  0  0  0  0
  4 37  1  0  0  0  0
  5  7  1  6  0  0  0
  5 13  1  0  0  0  0
  5 38  1  0  0  0  0
  6 11  1  1  0  0  0
  6 31  1  0  0  0  0
  6 39  1  0  0  0  0
  7  8  1  1  0  0  0
  7 28  1  0  0  0  0
  7 40  1  0  0  0  0
  8  9  1  1  0  0  0
  8 30  1  0  0  0  0
  8 41  1  0  0  0  0
  9 12  1  0  0  0  0
  9 26  1  0  0  0  0
  9 42  1  1  0  0  0
 10  5  1  6  0  0  0
 10 26  1  0  0  0  0
 10 29  1  0  0  0  0
 10 43  1  0  0  0  0
 11 25  1  0  0  0  0
 11 30  1  0  0  0  0
 11 44  1  6  0  0  0
 12 32  1  0  0  0  0
 12 45  1  0  0  0  0
 12 46  1  0  0  0  0
 13 33  1  0  0  0  0
 13 47  1  0  0  0  0
 15 33  1  0  0  0  0
 16 34  1  0  0  0  0
 17 35  1  0  0  0  0
 19 33  2  0  0  0  0
 20 33  2  0  0  0  0
 21 34  2  0  0  0  0
 22 34  2  0  0  0  0
 23 35  2  0  0  0  0
 24 35  2  0  0  0  0
 27 48  1  0  0  0  0
 28 49  1  0  0  0  0
 29 50  1  0  0  0  0
 31 34  1  0  0  0  0
 32 35  1  0  0  0  0
M  END
$$$$
DrugBank_7108
 OpenBabel01151909533D

 72 76  0  0  1  0  0  0  0  0999 V2000
   -6.4279    1.0384   -0.1479 C   0  0  0  0  0  0  0  0  0  0  0  0
   -6.7006    2.1948   -0.8786 C   0  0  0  0  0  0  0  0  0  0  0  0
   -4.0852    1.6262   -0.0917 C   0  0  0  0  0  0  0  0  0  0  0  0
   -4.3578    2.7826   -0.8225 C   0  0  0  0  0  0  0  0  0  0  0  0
   -5.1202    0.7541    0.2456 C   0  0  0  0  0  0  0  0  0  0  0  0
   -5.6656    3.0669   -1.2160 C   0  0  0  0  0  0  0  0  0  0  0  0
   -4.8831   -0.5225    2.3263 C   0  0  0  0  0  0  0  0  0  0  0  0
   -6.2234    5.4460   -1.4251 C   0  0  0  0  0  0  0  0  0  0  0  0
   -5.2279    0.5899    3.2689 C   0  0  0  0  0  0  0  0  0  0  0  0
   -6.2870    5.7320    0.0443 C   0  0  0  0  0  0  0  0  0  0  0  0
   -4.8396   -0.4362    0.9987 C   0  0  0  0  0  0  0  0  0  0  0  0
   -5.9497    4.2723   -1.9783 C   0  0  0  0  0  0  0  0  0  0  0  0
   -5.9267   -2.1087    3.8648 C   0  0  0  0  0  0  0  0  0  0  0  0
   -5.3757    7.7077   -1.7976 C   0  0  0  0  0  0  0  0  0  0  0  0
   -6.2813   -0.9423    4.8256 C   0  0  0  0  0  0  0  0  0  0  0  0
   -5.4423    7.9831   -0.2715 C   0  0  0  0  0  0  0  0  0  0  0  0
   -4.5703   -1.6767    3.2572 C   0  0  2  0  0  0  0  0  0  0  0  0
   -6.5870    6.7778   -2.0501 C   0  0  2  0  0  0  0  0  0  0  0  0
   -5.0711    0.0163    4.6778 C   0  0  1  0  0  0  0  0  0  0  0  0
   -6.7035    7.1978    0.1737 C   0  0  1  0  0  0  0  0  0  0  0  0
   -3.8712   -0.9550    4.4471 C   0  0  0  0  0  0  0  0  0  0  0  0
   -7.6557    7.3226   -1.0568 C   0  0  0  0  0  0  0  0  0  0  0  0
   -2.5473   -0.2657    4.0601 C   0  0  0  0  0  0  0  0  0  0  0  0
   -3.5472   -1.8777    5.6439 C   0  0  0  0  0  0  0  0  0  0  0  0
   -8.9276    6.4544   -0.9799 C   0  0  0  0  0  0  0  0  0  0  0  0
   -8.1294    8.7613   -1.3641 C   0  0  0  0  0  0  0  0  0  0  0  0
   -4.9398    1.0543    5.7660 C   0  0  0  0  0  0  0  0  0  0  0  0
   -7.2485    7.5770    1.5294 C   0  0  0  0  0  0  0  0  0  0  0  0
   -5.5883    1.7090    2.9560 O   0  0  0  0  0  0  0  0  0  0  0  0
   -6.0257    4.9500    0.9389 O   0  0  0  0  0  0  0  0  0  0  0  0
   -7.1833    0.8091    7.1044 O   0  0  0  0  0  0  0  0  0  0  0  0
   -7.1543    2.2383    5.0128 O   0  0  0  0  0  0  0  0  0  0  0  0
   -5.3953    9.1601    2.5009 O   0  0  0  0  0  0  0  0  0  0  0  0
   -5.1112    6.6536    2.7346 O   0  0  0  0  0  0  0  0  0  0  0  0
   -5.9544    2.9954    7.0805 O   0  0  0  0  0  0  0  0  0  0  0  0
   -6.8821    7.8546    4.0421 O   0  0  0  0  0  0  0  0  0  0  0  0
   -6.5074    1.7316    6.2099 S   0  0  0  0  0  0  0  0  0  0  0  0
   -5.9543    7.8352    2.7006 S   0  0  0  0  0  0  0  0  0  0  0  0
   -7.2453    0.3685    0.1078 H   0  0  0  0  0  0  0  0  0  0  0  0
   -7.7249    2.4024   -1.1788 H   0  0  0  0  0  0  0  0  0  0  0  0
   -3.0609    1.4179    0.2075 H   0  0  0  0  0  0  0  0  0  0  0  0
   -3.5404    3.4530   -1.0781 H   0  0  0  0  0  0  0  0  0  0  0  0
   -4.5993   -1.3415    0.4382 H   0  0  0  0  0  0  0  0  0  0  0  0
   -5.9042    4.1943   -3.0522 H   0  0  0  0  0  0  0  0  0  0  0  0
   -5.8352   -3.0490    4.4187 H   0  0  0  0  0  0  0  0  0  0  0  0
   -6.7037   -2.2502    3.1047 H   0  0  0  0  0  0  0  0  0  0  0  0
   -5.4649    8.6423   -2.3614 H   0  0  0  0  0  0  0  0  0  0  0  0
   -4.4227    7.2449   -2.0786 H   0  0  0  0  0  0  0  0  0  0  0  0
   -7.2246   -0.4683    4.5302 H   0  0  0  0  0  0  0  0  0  0  0  0
   -6.3984   -1.3078    5.8515 H   0  0  0  0  0  0  0  0  0  0  0  0
   -4.5338    7.6268    0.2280 H   0  0  0  0  0  0  0  0  0  0  0  0
   -5.5315    9.0570   -0.0754 H   0  0  0  0  0  0  0  0  0  0  0  0
   -4.0000   -2.4878    2.7993 H   0  0  0  0  0  0  0  0  0  0  0  0
   -6.9031    6.7185   -3.0938 H   0  0  0  0  0  0  0  0  0  0  0  0
   -2.1259    0.2105    4.9379 H   0  0  0  0  0  0  0  0  0  0  0  0
   -2.7449    0.4782    3.2970 H   0  0  0  0  0  0  0  0  0  0  0  0
   -1.8582   -1.0104    3.6787 H   0  0  0  0  0  0  0  0  0  0  0  0
   -3.0660   -1.2929    6.4176 H   0  0  0  0  0  0  0  0  0  0  0  0
   -2.8851   -2.6665    5.3095 H   0  0  0  0  0  0  0  0  0  0  0  0
   -4.4698   -2.3021    6.0195 H   0  0  0  0  0  0  0  0  0  0  0  0
   -9.6175    6.8982   -0.2714 H   0  0  0  0  0  0  0  0  0  0  0  0
   -8.6567    5.4568   -0.6539 H   0  0  0  0  0  0  0  0  0  0  0  0
   -9.3859    6.4093   -1.9611 H   0  0  0  0  0  0  0  0  0  0  0  0
   -8.8665    9.0531   -0.6267 H   0  0  0  0  0  0  0  0  0  0  0  0
   -8.5671    8.7825   -2.3542 H   0  0  0  0  0  0  0  0  0  0  0  0
   -7.2774    9.4280   -1.3208 H   0  0  0  0  0  0  0  0  0  0  0  0
   -4.3106    1.8887    5.4409 H   0  0  0  0  0  0  0  0  0  0  0  0
   -4.5089    0.6212    6.6740 H   0  0  0  0  0  0  0  0  0  0  0  0
   -7.8912    6.7873    1.9309 H   0  0  0  0  0  0  0  0  0  0  0  0
   -7.8237    8.5065    1.4770 H   0  0  0  0  0  0  0  0  0  0  0  0
   -5.4943    2.7609    7.9206 H   0  0  0  0  0  0  0  0  0  0  0  0
   -7.4971    8.6215    4.1197 H   0  0  0  0  0  0  0  0  0  0  0  0
  1  2  2  0  0  0  0
  1  5  1  0  0  0  0
  1 39  1  0  0  0  0
  2  6  1  0  0  0  0
  2 40  1  0  0  0  0
  3  4  1  0  0  0  0
  3  5  2  0  0  0  0
  3 41  1  0  0  0  0
  4  6  2  0  0  0  0
  4 42  1  0  0  0  0
  5 11  1  0  0  0  0
  6 12  1  0  0  0  0
  7  9  1  0  0  0  0
  7 11  2  0  0  0  0
  7 17  1  0  0  0  0
  8 10  1  0  0  0  0
  8 12  2  0  0  0  0
  8 18  1  0  0  0  0
  9 19  1  0  0  0  0
  9 29  2  0  0  0  0
 10 20  1  0  0  0  0
 10 30  2  0  0  0  0
 11 43  1  0  0  0  0
 12 44  1  0  0  0  0
 13 15  1  0  0  0  0
 13 17  1  0  0  0  0
 13 45  1  0  0  0  0
 13 46  1  0  0  0  0
 14 16  1  0  0  0  0
 14 18  1  0  0  0  0
 14 47  1  0  0  0  0
 14 48  1  0  0  0  0
 15 19  1  0  0  0  0
 15 49  1  0  0  0  0
 15 50  1  0  0  0  0
 16 20  1  0  0  0  0
 16 51  1  0  0  0  0
 16 52  1  0  0  0  0
 17 21  1  0  0  0  0
 17 53  1  6  0  0  0
 18 22  1  0  0  0  0
 18 54  1  6  0  0  0
 19 21  1  0  0  0  0
 19 27  1  1  0  0  0
 20 22  1  0  0  0  0
 20 28  1  1  0  0  0
 21 23  1  0  0  0  0
 21 24  1  0  0  0  0
 22 25  1  0  0  0  0
 22 26  1  0  0  0  0
 23 55  1  0  0  0  0
 23 56  1  0  0  0  0
 23 57  1  0  0  0  0
 24 58  1  0  0  0  0
 24 59  1  0  0  0  0
 24 60  1  0  0  0  0
 25 61  1  0  0  0  0
 25 62  1  0  0  0  0
 25 63  1  0  0  0  0
 26 64  1  0  0  0  0
 26 65  1  0  0  0  0
 26 66  1  0  0  0  0
 27 37  1  0  0  0  0
 27 67  1  0  0  0  0
 27 68  1  0  0  0  0
 28 38  1  0  0  0  0
 28 69  1  0  0  0  0
 28 70  1  0  0  0  0
 31 37  2  0  0  0  0
 32 37  2  0  0  0  0
 33 38  2  0  0  0  0
 34 38  2  0  0  0  0
 35 37  1  0  0  0  0
 35 71  1  0  0  0  0
 36 38  1  0  0  0  0
 36 72  1  0  0  0  0
M  END
$$$$
DrugBank_2063
 OpenBabel01151909533D

 16 15  0  0  1  0  0  0  0  0999 V2000
   -1.3877   -0.7837    0.9382 C   0  0  0  0  0  0  0  0  0  0  0  0
    0.0229    0.7792   -0.4096 C   0  0  0  0  0  0  0  0  0  0  0  0
   -0.0908   -0.6184    0.1780 C   0  0  2  0  0  0  0  0  0  0  0  0
   -2.2919   -1.5524    0.6440 O   0  0  0  0  0  0  0  0  0  0  0  0
    2.1714    0.2144   -1.8058 O   0  0  0  0  0  0  0  0  0  0  0  0
    2.4284    1.4401    0.3964 O   0  0  0  0  0  0  0  0  0  0  0  0
   -1.4131    0.0228    2.0297 O   0  0  0  0  0  0  0  0  0  0  0  0
   -0.0904   -1.5595   -0.8869 O   0  0  0  0  0  0  0  0  0  0  0  0
    1.3955    2.5886   -1.5789 O   0  0  0  0  0  0  0  0  0  0  0  0
    1.6949    1.1730   -0.8265 S   0  0  0  0  0  0  0  0  0  0  0  0
   -0.5552    0.8761   -1.3345 H   0  0  0  0  0  0  0  0  0  0  0  0
   -0.3050    1.5508    0.2935 H   0  0  0  0  0  0  0  0  0  0  0  0
    0.7470   -0.8568    0.8423 H   0  0  0  0  0  0  0  0  0  0  0  0
   -0.6007    0.5680    2.1007 H   0  0  0  0  0  0  0  0  0  0  0  0
   -0.1582   -2.4398   -0.4830 H   0  0  0  0  0  0  0  0  0  0  0  0
    0.8978    2.5200   -2.4274 H   0  0  0  0  0  0  0  0  0  0  0  0
  1  3  1  0  0  0  0
  1  4  2  0  0  0  0
  1  7  1  0  0  0  0
  2  3  1  0  0  0  0
  2 10  1  0  0  0  0
  2 11  1  0  0  0  0
  2 12  1  0  0  0  0
  3  8  1  0  0  0  0
  3 13  1  1  0  0  0
  5 10  2  0  0  0  0
  6 10  2  0  0  0  0
  7 14  1  0  0  0  0
  8 15  1  0  0  0  0
  9 10  1  0  0  0  0
  9 16  1  0  0  0  0
M  END
$$$$
DrugBank_2065
 OpenBabel01151909533D

 79 82  0  0  1  0  0  0  0  0999 V2000
    8.1346   -4.1330   -2.6118 C   0  0  0  0  0  0  0  0  0  0  0  0
    7.3190   -5.1372   -2.0903 C   0  0  0  0  0  0  0  0  0  0  0  0
    7.6090   -2.8642   -2.8561 C   0  0  0  0  0  0  0  0  0  0  0  0
    5.9778   -4.8727   -1.8132 C   0  0  0  0  0  0  0  0  0  0  0  0
    6.2678   -2.5997   -2.5790 C   0  0  0  0  0  0  0  0  0  0  0  0
    3.3665   -2.3830   -2.5226 C   0  0  0  0  0  0  0  0  0  0  0  0
    3.4144   -4.0125   -0.7394 C   0  0  0  0  0  0  0  0  0  0  0  0
    2.0253   -2.1189   -2.2452 C   0  0  0  0  0  0  0  0  0  0  0  0
    2.0731   -3.7483   -0.4621 C   0  0  0  0  0  0  0  0  0  0  0  0
   -3.6884    6.2333   -0.4965 C   0  0  0  0  0  0  0  0  0  0  0  0
   -4.3101    6.6331    0.6863 C   0  0  0  0  0  0  0  0  0  0  0  0
   -2.0578    4.9897    0.7808 C   0  0  0  0  0  0  0  0  0  0  0  0
    5.4522   -3.6039   -2.0575 C   0  0  0  0  0  0  0  0  0  0  0  0
    4.0611   -3.3298   -1.7697 C   0  0  0  0  0  0  0  0  0  0  0  0
    1.3786   -2.8015   -1.2150 C   0  0  0  0  0  0  0  0  0  0  0  0
   -2.5622    5.4116   -0.4493 C   0  0  0  0  0  0  0  0  0  0  0  0
   -3.8057    6.2112    1.9164 C   0  0  0  0  0  0  0  0  0  0  0  0
   -2.6795    5.3895    1.9637 C   0  0  0  0  0  0  0  0  0  0  0  0
   -0.4696   -0.0798   -0.9401 C   0  0  0  0  0  0  0  0  0  0  0  0
   -4.3369    4.1236   -3.8439 C   0  0  0  0  0  0  0  0  0  0  0  0
   -2.2996    2.5489   -1.2596 C   0  0  0  0  0  0  0  0  0  0  0  0
    1.0670    0.8575    1.8433 C   0  0  0  0  0  0  0  0  0  0  0  0
    1.1337   -0.6660    1.7670 C   0  0  0  0  0  0  0  0  0  0  0  0
    0.8150    1.5524    0.5064 C   0  0  0  0  0  0  0  0  0  0  0  0
   -0.1507   -1.3005    1.2451 C   0  0  0  0  0  0  0  0  0  0  0  0
   -0.5394    1.2048   -0.1138 C   0  0  1  0  0  0  0  0  0  0  0  0
   -5.8260    4.1632   -3.9402 C   0  0  0  0  0  0  0  0  0  0  0  0
   -1.8892    4.9800   -1.7294 C   0  0  0  0  0  0  0  0  0  0  0  0
   -0.0652   -2.5174   -0.9166 C   0  0  0  0  0  0  0  0  0  0  0  0
   -2.4554    3.6676   -2.2835 C   0  0  2  0  0  0  0  0  0  0  0  0
   -0.2384   -1.2514   -0.2154 N   0  0  0  0  0  0  0  0  0  0  0  0
   -0.9661    2.2567   -1.0076 N   0  0  0  0  0  0  0  0  0  0  0  0
   -3.8592    3.7686   -2.5943 N   0  0  0  0  0  0  0  0  0  0  0  0
   -0.5865   -0.0562   -2.1683 O   0  0  0  0  0  0  0  0  0  0  0  0
   -3.6604    4.3931   -4.8294 O   0  0  0  0  0  0  0  0  0  0  0  0
   -3.2564    1.9591   -0.7621 O   0  0  0  0  0  0  0  0  0  0  0  0
   -5.1618    5.6679    4.3062 O   0  0  0  0  0  0  0  0  0  0  0  0
   -1.5618    5.8855    4.4836 O   0  0  0  0  0  0  0  0  0  0  0  0
   -3.5430    7.6981    4.1439 O   0  0  0  0  0  0  0  0  0  0  0  0
   -5.7366    7.7935    2.9203 O   0  0  0  0  0  0  0  0  0  0  0  0
   -3.1569    3.8614    4.1267 O   0  0  0  0  0  0  0  0  0  0  0  0
   -0.8549    3.7853    3.1201 O   0  0  0  0  0  0  0  0  0  0  0  0
   -4.6112    6.7311    3.4019 P   0  0  0  0  0  0  0  0  0  0  0  0
   -2.0220    4.8405    3.5099 P   0  0  0  0  0  0  0  0  0  0  0  0
    9.1793   -4.3387   -2.8260 H   0  0  0  0  0  0  0  0  0  0  0  0
    7.7284   -6.1246   -1.8985 H   0  0  0  0  0  0  0  0  0  0  0  0
    8.2439   -2.0814   -3.2608 H   0  0  0  0  0  0  0  0  0  0  0  0
    5.3549   -5.6660   -1.4066 H   0  0  0  0  0  0  0  0  0  0  0  0
    5.8723   -1.6057   -2.7740 H   0  0  0  0  0  0  0  0  0  0  0  0
    3.8565   -1.8430   -3.3293 H   0  0  0  0  0  0  0  0  0  0  0  0
    3.9424   -4.7529   -0.1432 H   0  0  0  0  0  0  0  0  0  0  0  0
    1.4917   -1.3804   -2.8377 H   0  0  0  0  0  0  0  0  0  0  0  0
    1.5772   -4.2845    0.3429 H   0  0  0  0  0  0  0  0  0  0  0  0
   -4.0888    6.5669   -1.4499 H   0  0  0  0  0  0  0  0  0  0  0  0
   -5.1869    7.2734    0.6439 H   0  0  0  0  0  0  0  0  0  0  0  0
   -1.1804    4.3492    0.8215 H   0  0  0  0  0  0  0  0  0  0  0  0
    0.2887    1.1527    2.5582 H   0  0  0  0  0  0  0  0  0  0  0  0
    2.0160    1.2248    2.2530 H   0  0  0  0  0  0  0  0  0  0  0  0
    1.9896   -0.9723    1.1534 H   0  0  0  0  0  0  0  0  0  0  0  0
    1.3188   -1.0409    2.7811 H   0  0  0  0  0  0  0  0  0  0  0  0
    0.8684    2.6344    0.6857 H   0  0  0  0  0  0  0  0  0  0  0  0
    1.6295    1.3158   -0.1904 H   0  0  0  0  0  0  0  0  0  0  0  0
   -0.1858   -2.3517    1.5552 H   0  0  0  0  0  0  0  0  0  0  0  0
   -1.0342   -0.8156    1.6737 H   0  0  0  0  0  0  0  0  0  0  0  0
   -1.3266    1.1260    0.6421 H   0  0  0  0  0  0  0  0  0  0  0  0
   -6.2372    5.1549   -3.6919 H   0  0  0  0  0  0  0  0  0  0  0  0
   -6.1875    3.9446   -4.9578 H   0  0  0  0  0  0  0  0  0  0  0  0
   -6.3597    3.4561   -3.2852 H   0  0  0  0  0  0  0  0  0  0  0  0
   -1.9752    5.7781   -2.4792 H   0  0  0  0  0  0  0  0  0  0  0  0
   -0.8128    4.8818   -1.5357 H   0  0  0  0  0  0  0  0  0  0  0  0
   -0.6493   -2.4729   -1.8423 H   0  0  0  0  0  0  0  0  0  0  0  0
   -0.5007   -3.3067   -0.2949 H   0  0  0  0  0  0  0  0  0  0  0  0
   -1.9500    3.3771   -3.2121 H   0  0  0  0  0  0  0  0  0  0  0  0
   -0.2543    2.8105   -1.4753 H   0  0  0  0  0  0  0  0  0  0  0  0
   -4.5327    3.5690   -1.8583 H   0  0  0  0  0  0  0  0  0  0  0  0
   -3.8416    8.2119    4.9243 H   0  0  0  0  0  0  0  0  0  0  0  0
   -6.2093    8.3148    3.6035 H   0  0  0  0  0  0  0  0  0  0  0  0
   -2.9353    3.3324    4.9225 H   0  0  0  0  0  0  0  0  0  0  0  0
   -0.4508    3.2503    3.8360 H   0  0  0  0  0  0  0  0  0  0  0  0
  1  2  2  0  0  0  0
  1  3  1  0  0  0  0
  1 45  1  0  0  0  0
  2  4  1  0  0  0  0
  2 46  1  0  0  0  0
  3  5  2  0  0  0  0
  3 47  1  0  0  0  0
  4 13  2  0  0  0  0
  4 48  1  0  0  0  0
  5 13  1  0  0  0  0
  5 49  1  0  0  0  0
  6  8  2  0  0  0  0
  6 14  1  0  0  0  0
  6 50  1  0  0  0  0
  7  9  1  0  0  0  0
  7 14  2  0  0  0  0
  7 51  1  0  0  0  0
  8 15  1  0  0  0  0
  8 52  1  0  0  0  0
  9 15  2  0  0  0  0
  9 53  1  0  0  0  0
 10 11  2  0  0  0  0
 10 16  1  0  0  0  0
 10 54  1  0  0  0  0
 11 17  1  0  0  0  0
 11 55  1  0  0  0  0
 12 16  2  0  0  0  0
 12 18  1  0  0  0  0
 12 56  1  0  0  0  0
 13 14  1  0  0  0  0
 15 29  1  0  0  0  0
 16 28  1  0  0  0  0
 17 18  2  0  0  0  0
 17 43  1  0  0  0  0
 18 44  1  0  0  0  0
 19 26  1  0  0  0  0
 19 31  1  0  0  0  0
 19 34  2  0  0  0  0
 20 27  1  0  0  0  0
 20 33  1  0  0  0  0
 20 35  2  0  0  0  0
 21 30  1  0  0  0  0
 21 32  1  0  0  0  0
 21 36  2  0  0  0  0
 22 23  1  0  0  0  0
 22 24  1  0  0  0  0
 22 57  1  0  0  0  0
 22 58  1  0  0  0  0
 23 25  1  0  0  0  0
 23 59  1  0  0  0  0
 23 60  1  0  0  0  0
 24 26  1  0  0  0  0
 24 61  1  0  0  0  0
 24 62  1  0  0  0  0
 25 31  1  0  0  0  0
 25 63  1  0  0  0  0
 25 64  1  0  0  0  0
 26 32  1  0  0  0  0
 26 65  1  1  0  0  0
 27 66  1  0  0  0  0
 27 67  1  0  0  0  0
 27 68  1  0  0  0  0
 28 30  1  0  0  0  0
 28 69  1  0  0  0  0
 28 70  1  0  0  0  0
 29 31  1  0  0  0  0
 29 71  1  0  0  0  0
 29 72  1  0  0  0  0
 30 33  1  0  0  0  0
 30 73  1  6  0  0  0
 32 74  1  0  0  0  0
 33 75  1  0  0  0  0
 37 43  2  0  0  0  0
 38 44  2  0  0  0  0
 39 43  1  0  0  0  0
 39 76  1  0  0  0  0
 40 43  1  0  0  0  0
 40 77  1  0  0  0  0
 41 44  1  0  0  0  0
 41 78  1  0  0  0  0
 42 44  1  0  0  0  0
 42 79  1  0  0  0  0
M  END
$$$$
DrugBank_2070
 OpenBabel01151909533D

 81 83  0  0  1  0  0  0  0  0999 V2000
    4.0019   -7.2581    3.1313 C   0  0  0  0  0  0  0  0  0  0  0  0
    5.9715   -5.9760    2.5708 C   0  0  0  0  0  0  0  0  0  0  0  0
    3.3404   -6.0843    3.4920 C   0  0  0  0  0  0  0  0  0  0  0  0
    5.3099   -4.8021    2.9314 C   0  0  0  0  0  0  0  0  0  0  0  0
    5.3175   -7.2039    2.6708 C   0  0  0  0  0  0  0  0  0  0  0  0
    3.9944   -4.8563    3.3920 C   0  0  0  0  0  0  0  0  0  0  0  0
    6.0140   -8.4402    2.2905 C   0  0  0  0  0  0  0  0  0  0  0  0
    3.2892   -3.6058    3.7744 C   0  0  0  0  0  0  0  0  0  0  0  0
   -1.5697   -0.4716    0.9663 C   0  0  0  0  0  0  0  0  0  0  0  0
   -3.6511   -0.2030   -2.0140 C   0  0  0  0  0  0  0  0  0  0  0  0
    0.4994   -2.1343    2.6229 C   0  0  0  0  0  0  0  0  0  0  0  0
    0.1502    1.5660    2.6186 C   0  0  0  0  0  0  0  0  0  0  0  0
    0.2679    1.2202    1.1361 C   0  0  0  0  0  0  0  0  0  0  0  0
    0.6371    0.3026    3.3119 C   0  0  0  0  0  0  0  0  0  0  0  0
    5.1777   -8.1887   -0.1045 C   0  0  0  0  0  0  0  0  0  0  0  0
    6.5249  -10.1376    0.5668 C   0  0  0  0  0  0  0  0  0  0  0  0
    6.0328   -8.1028   -1.3631 C   0  0  0  0  0  0  0  0  0  0  0  0
    7.3286   -9.9615   -0.7133 C   0  0  0  0  0  0  0  0  0  0  0  0
   -0.0906   -0.2605    1.0881 C   0  0  1  0  0  0  0  0  0  0  0  0
   -2.7371   -3.2088   -1.4255 C   0  0  0  0  0  0  0  0  0  0  0  0
   -4.0436   -2.9572    0.6976 C   0  0  0  0  0  0  0  0  0  0  0  0
   -0.8792   -3.9745    4.5428 C   0  0  0  0  0  0  0  0  0  0  0  0
    0.6099   -3.1294    6.3620 C   0  0  0  0  0  0  0  0  0  0  0  0
   -3.3923   -0.8839   -0.6741 C   0  0  1  0  0  0  0  0  0  0  0  0
    1.0839   -2.4854    3.9679 C   0  0  1  0  0  0  0  0  0  0  0  0
   -3.7921   -2.3714   -0.6957 C   0  0  0  0  0  0  0  0  0  0  0  0
   -0.0060   -2.7998    4.9978 C   0  0  0  0  0  0  0  0  0  0  0  0
   -5.0002    0.4555   -2.2098 C   0  0  0  0  0  0  0  0  0  0  0  0
   -4.9733    1.8974   -1.7676 C   0  0  0  0  0  0  0  0  0  0  0  0
    5.9166   -8.8694    0.9658 N   0  0  0  0  0  0  0  0  0  0  0  0
    0.3117   -0.7811    2.3881 N   0  0  0  0  0  0  0  0  0  0  0  0
    1.9035   -3.6240    3.6595 N   0  0  0  0  0  0  0  0  0  0  0  0
   -2.0111   -0.6619   -0.3323 N   0  0  0  0  0  0  0  0  0  0  0  0
    6.6344   -9.0135    3.1848 O   0  0  0  0  0  0  0  0  0  0  0  0
    3.9456   -2.6357    4.1438 O   0  0  0  0  0  0  0  0  0  0  0  0
   -2.2660   -0.4651    1.9747 O   0  0  0  0  0  0  0  0  0  0  0  0
   -2.8082   -0.1781   -2.9124 O   0  0  0  0  0  0  0  0  0  0  0  0
    0.2123   -3.0220    1.8181 O   0  0  0  0  0  0  0  0  0  0  0  0
    6.5047   -9.3992   -1.7382 O   0  0  0  0  0  0  0  0  0  0  0  0
   -5.3991    0.4021   -3.5083 F   0  0  0  0  0  0  0  0  0  0  0  0
   -5.9558   -0.1968   -1.4933 F   0  0  0  0  0  0  0  0  0  0  0  0
   -4.0678    2.6152   -2.4649 F   0  0  0  0  0  0  0  0  0  0  0  0
   -4.6665    2.0031   -0.4568 F   0  0  0  0  0  0  0  0  0  0  0  0
   -6.1819    2.4729   -1.9527 F   0  0  0  0  0  0  0  0  0  0  0  0
    3.4826   -8.2097    3.2125 H   0  0  0  0  0  0  0  0  0  0  0  0
    6.9963   -5.9217    2.2123 H   0  0  0  0  0  0  0  0  0  0  0  0
    2.3151   -6.1381    3.8489 H   0  0  0  0  0  0  0  0  0  0  0  0
    5.8291   -3.8506    2.8490 H   0  0  0  0  0  0  0  0  0  0  0  0
    0.7323    2.4489    2.8972 H   0  0  0  0  0  0  0  0  0  0  0  0
   -0.8983    1.7564    2.8764 H   0  0  0  0  0  0  0  0  0  0  0  0
   -0.3770    1.8476    0.5129 H   0  0  0  0  0  0  0  0  0  0  0  0
    1.3062    1.3659    0.8129 H   0  0  0  0  0  0  0  0  0  0  0  0
    1.7242    0.3165    3.4454 H   0  0  0  0  0  0  0  0  0  0  0  0
    0.1601    0.1442    4.2829 H   0  0  0  0  0  0  0  0  0  0  0  0
    4.8502   -7.1909    0.1965 H   0  0  0  0  0  0  0  0  0  0  0  0
    4.2856   -8.7963   -0.2971 H   0  0  0  0  0  0  0  0  0  0  0  0
    5.6992  -10.8400    0.4021 H   0  0  0  0  0  0  0  0  0  0  0  0
    7.1563  -10.5375    1.3661 H   0  0  0  0  0  0  0  0  0  0  0  0
    5.4396   -7.7078   -2.1936 H   0  0  0  0  0  0  0  0  0  0  0  0
    6.8906   -7.4356   -1.2169 H   0  0  0  0  0  0  0  0  0  0  0  0
    8.1998   -9.3151   -0.5540 H   0  0  0  0  0  0  0  0  0  0  0  0
    7.6905  -10.9319   -1.0665 H   0  0  0  0  0  0  0  0  0  0  0  0
    0.4128   -0.7982    0.2782 H   0  0  0  0  0  0  0  0  0  0  0  0
   -1.7738   -3.1546   -0.9073 H   0  0  0  0  0  0  0  0  0  0  0  0
   -3.0344   -4.2622   -1.4632 H   0  0  0  0  0  0  0  0  0  0  0  0
   -2.5853   -2.8604   -2.4524 H   0  0  0  0  0  0  0  0  0  0  0  0
   -3.1473   -2.8976    1.3222 H   0  0  0  0  0  0  0  0  0  0  0  0
   -4.8349   -2.3991    1.2102 H   0  0  0  0  0  0  0  0  0  0  0  0
   -4.3580   -4.0048    0.6469 H   0  0  0  0  0  0  0  0  0  0  0  0
   -0.2830   -4.8810    4.3974 H   0  0  0  0  0  0  0  0  0  0  0  0
   -1.3675   -3.7483    3.5886 H   0  0  0  0  0  0  0  0  0  0  0  0
   -1.6607   -4.1957    5.2778 H   0  0  0  0  0  0  0  0  0  0  0  0
    1.2741   -3.9982    6.2976 H   0  0  0  0  0  0  0  0  0  0  0  0
    1.1895   -2.2861    6.7513 H   0  0  0  0  0  0  0  0  0  0  0  0
   -0.1711   -3.3550    7.0962 H   0  0  0  0  0  0  0  0  0  0  0  0
   -3.9730   -0.3511    0.0874 H   0  0  0  0  0  0  0  0  0  0  0  0
    1.7329   -1.6685    4.2865 H   0  0  0  0  0  0  0  0  0  0  0  0
   -4.7291   -2.4658   -1.2600 H   0  0  0  0  0  0  0  0  0  0  0  0
   -0.6581   -1.9253    5.1255 H   0  0  0  0  0  0  0  0  0  0  0  0
    1.4394   -4.4499    3.2848 H   0  0  0  0  0  0  0  0  0  0  0  0
   -1.3244   -0.6439   -1.0836 H   0  0  0  0  0  0  0  0  0  0  0  0
  1  3  2  0  0  0  0
  1  5  1  0  0  0  0
  1 45  1  0  0  0  0
  2  4  1  0  0  0  0
  2  5  2  0  0  0  0
  2 46  1  0  0  0  0
  3  6  1  0  0  0  0
  3 47  1  0  0  0  0
  4  6  2  0  0  0  0
  4 48  1  0  0  0  0
  5  7  1  0  0  0  0
  6  8  1  0  0  0  0
  7 30  1  0  0  0  0
  7 34  2  0  0  0  0
  8 32  1  0  0  0  0
  8 35  2  0  0  0  0
  9 19  1  0  0  0  0
  9 33  1  0  0  0  0
  9 36  2  0  0  0  0
 10 24  1  0  0  0  0
 10 28  1  0  0  0  0
 10 37  2  0  0  0  0
 11 25  1  0  0  0  0
 11 31  1  0  0  0  0
 11 38  2  0  0  0  0
 12 13  1  0  0  0  0
 12 14  1  0  0  0  0
 12 49  1  0  0  0  0
 12 50  1  0  0  0  0
 13 19  1  0  0  0  0
 13 51  1  0  0  0  0
 13 52  1  0  0  0  0
 14 31  1  0  0  0  0
 14 53  1  0  0  0  0
 14 54  1  0  0  0  0
 15 17  1  0  0  0  0
 15 30  1  0  0  0  0
 15 55  1  0  0  0  0
 15 56  1  0  0  0  0
 16 18  1  0  0  0  0
 16 30  1  0  0  0  0
 16 57  1  0  0  0  0
 16 58  1  0  0  0  0
 17 39  1  0  0  0  0
 17 59  1  0  0  0  0
 17 60  1  0  0  0  0
 18 39  1  0  0  0  0
 18 61  1  0  0  0  0
 18 62  1  0  0  0  0
 19 31  1  0  0  0  0
 19 63  1  6  0  0  0
 20 26  1  0  0  0  0
 20 64  1  0  0  0  0
 20 65  1  0  0  0  0
 20 66  1  0  0  0  0
 21 26  1  0  0  0  0
 21 67  1  0  0  0  0
 21 68  1  0  0  0  0
 21 69  1  0  0  0  0
 22 27  1  0  0  0  0
 22 70  1  0  0  0  0
 22 71  1  0  0  0  0
 22 72  1  0  0  0  0
 23 27  1  0  0  0  0
 23 73  1  0  0  0  0
 23 74  1  0  0  0  0
 23 75  1  0  0  0  0
 24 26  1  0  0  0  0
 24 33  1  0  0  0  0
 24 76  1  1  0  0  0
 25 27  1  0  0  0  0
 25 32  1  0  0  0  0
 25 77  1  1  0  0  0
 26 78  1  0  0  0  0
 27 79  1  0  0  0  0
 28 29  1  0  0  0  0
 28 40  1  0  0  0  0
 28 41  1  0  0  0  0
 29 42  1  0  0  0  0
 29 43  1  0  0  0  0
 29 44  1  0  0  0  0
 32 80  1  0  0  0  0
 33 81  1  0  0  0  0
M  END
$$$$
DrugBank_2077
 OpenBabel01151909533D

  5  4  0  0  0  0  0  0  0  0999 V2000
    1.1270    0.9225    0.5418 O   0  0  0  0  0  0  0  0  0  0  0  0
    0.5646   -1.2885   -0.6600 O   0  0  0  0  0  0  0  0  0  0  0  0
   -1.0691   -0.3164    1.0823 O   0  0  0  0  0  0  0  0  0  0  0  0
   -0.6827    0.7485   -1.0575 F   0  0  0  0  0  0  0  0  0  0  0  0
    0.0603   -0.0661    0.0934 P   0  0  0  0  0  0  0  0  0  0  0  0
  1  5  1  0  0  0  0
  2  5  1  0  0  0  0
  3  5  2  0  0  0  0
  4  5  1  0  0  0  0
M  END
$$$$
DrugBank_7124
 OpenBabel01151909533D

104110  0  0  1  0  0  0  0  0999 V2000
    3.5337    3.1956   -3.2770 C   0  0  0  0  0  0  0  0  0  0  0  0
    3.4279    2.9866   -4.6509 C   0  0  0  0  0  0  0  0  0  0  0  0
    1.2122    2.1210   -4.3157 C   0  0  0  0  0  0  0  0  0  0  0  0
    2.4901    2.8736   -2.4128 C   0  0  0  0  0  0  0  0  0  0  0  0
    1.3093    2.3268   -2.9417 C   0  0  0  0  0  0  0  0  0  0  0  0
    2.2618    2.4468   -5.1726 C   0  0  0  0  0  0  0  0  0  0  0  0
    1.5828    2.7623   -0.2856 C   0  0  0  0  0  0  0  0  0  0  0  0
    0.4261    2.2213   -0.8142 C   0  0  0  0  0  0  0  0  0  0  0  0
   -2.8844   -2.3322   -0.0523 C   0  0  0  0  0  0  0  0  0  0  0  0
   -0.9655   -4.1036    1.5469 C   0  0  0  0  0  0  0  0  0  0  0  0
   -8.4475    1.4698   -2.5962 C   0  0  0  0  0  0  0  0  0  0  0  0
   -7.4486    1.6221   -3.4722 C   0  0  0  0  0  0  0  0  0  0  0  0
   -4.6273    0.1585   -0.8615 C   0  0  0  0  0  0  0  0  0  0  0  0
   -6.0410   -1.0367   -3.4784 C   0  0  0  0  0  0  0  0  0  0  0  0
    1.7783    2.9471    1.1956 C   0  0  0  0  0  0  0  0  0  0  0  0
    2.3158    1.6646    1.8397 C   0  0  0  0  0  0  0  0  0  0  0  0
    1.9854    1.6040    3.3321 C   0  0  0  0  0  0  0  0  0  0  0  0
    2.5885    0.3979    4.0644 C   0  0  0  0  0  0  0  0  0  0  0  0
    2.3976   -0.9672    3.3984 C   0  0  0  0  0  0  0  0  0  0  0  0
   -7.7120   -3.2176   -0.2248 C   0  0  0  0  0  0  0  0  0  0  0  0
   -8.8060   -2.2576   -0.6018 C   0  0  0  0  0  0  0  0  0  0  0  0
   -5.0428    1.2074   -4.2006 C   0  0  0  0  0  0  0  0  0  0  0  0
   -2.8598    1.2786    0.5141 C   0  0  0  0  0  0  0  0  0  0  0  0
    0.1948   -2.1775    4.1568 C   0  0  0  0  0  0  0  0  0  0  0  0
   -1.4121   -0.3109   -0.5462 C   0  0  0  0  0  0  0  0  0  0  0  0
   -1.7510   -3.2509   -0.4976 C   0  0  2  0  0  0  0  0  0  0  0  0
   -6.0378    1.5347   -3.1227 C   0  0  2  0  0  0  0  0  0  0  0  0
   -3.6525    0.0077    0.2671 C   0  0  2  0  0  0  0  0  0  0  0  0
    0.9613   -1.3349    3.1769 C   0  0  2  0  0  0  0  0  0  0  0  0
   -1.6950    1.1910   -0.4814 C   0  0  2  0  0  0  0  0  0  0  0  0
    0.6273   -2.7692    2.8431 C   0  0  2  0  0  0  0  0  0  0  0  0
   -8.5180   -3.4466   -1.4670 C   0  0  0  0  0  0  0  0  0  0  0  0
   -5.3262    0.1969   -3.1153 C   0  0  1  0  0  0  0  0  0  0  0  0
   -1.0054   -4.8394   -2.2875 C   0  0  0  0  0  0  0  0  0  0  0  0
   -2.2306   -2.7405   -2.9042 C   0  0  0  0  0  0  0  0  0  0  0  0
   -3.4440   -4.6079   -1.7524 C   0  0  0  0  0  0  0  0  0  0  0  0
    3.2572    2.5938   -7.3275 C   0  0  0  0  0  0  0  0  0  0  0  0
   -2.1053   -3.8555   -1.8511 C   0  0  0  0  0  0  0  0  0  0  0  0
    2.6176    3.0826   -1.0912 N   0  0  0  0  0  0  0  0  0  0  0  0
    0.2844    2.0047   -2.1371 N   0  0  0  0  0  0  0  0  0  0  0  0
   -1.6540   -4.3397    0.4846 N   0  0  0  0  0  0  0  0  0  0  0  0
   -4.2749    0.0249   -2.0984 N   0  0  0  0  0  0  0  0  0  0  0  0
   -6.7962   -1.6279   -2.6135 N   0  0  0  0  0  0  0  0  0  0  0  0
   -2.6579   -0.9671   -0.1543 N   0  0  0  0  0  0  0  0  0  0  0  0
   -3.9481   -2.8090    0.3553 O   0  0  0  0  0  0  0  0  0  0  0  0
   -6.6500   -4.0841   -3.2132 O   0  0  0  0  0  0  0  0  0  0  0  0
   -8.6204   -2.7118   -3.9958 O   0  0  0  0  0  0  0  0  0  0  0  0
   -0.5972    1.9179    0.0610 O   0  0  0  0  0  0  0  0  0  0  0  0
   -0.3659   -2.9095    1.8122 O   0  0  0  0  0  0  0  0  0  0  0  0
   -0.8189   -5.0613    2.4949 O   0  0  0  0  0  0  0  0  0  0  0  0
   -5.8876    0.4429   -0.4631 O   0  0  0  0  0  0  0  0  0  0  0  0
   -5.8322   -1.4612   -4.7492 O   0  0  0  0  0  0  0  0  0  0  0  0
    2.1424    2.2365   -6.5109 O   0  0  0  0  0  0  0  0  0  0  0  0
   -7.5872   -2.9938   -3.0167 S   0  0  0  0  0  0  0  0  0  0  0  0
    4.4548    3.6188   -2.8806 H   0  0  0  0  0  0  0  0  0  0  0  0
    4.2574    3.2465   -5.3022 H   0  0  0  0  0  0  0  0  0  0  0  0
    0.2993    1.6980   -4.7319 H   0  0  0  0  0  0  0  0  0  0  0  0
   -9.4794    1.5468   -2.9209 H   0  0  0  0  0  0  0  0  0  0  0  0
   -8.2572    1.2671   -1.5479 H   0  0  0  0  0  0  0  0  0  0  0  0
   -7.6902    1.8242   -4.5121 H   0  0  0  0  0  0  0  0  0  0  0  0
    2.4848    3.7706    1.3680 H   0  0  0  0  0  0  0  0  0  0  0  0
    0.8354    3.2569    1.6653 H   0  0  0  0  0  0  0  0  0  0  0  0
    1.8789    0.8003    1.3285 H   0  0  0  0  0  0  0  0  0  0  0  0
    3.4006    1.6031    1.6928 H   0  0  0  0  0  0  0  0  0  0  0  0
    2.3395    2.5198    3.8223 H   0  0  0  0  0  0  0  0  0  0  0  0
    0.8957    1.5948    3.4613 H   0  0  0  0  0  0  0  0  0  0  0  0
    3.6664    0.5677    4.1841 H   0  0  0  0  0  0  0  0  0  0  0  0
    2.1667    0.3667    5.0774 H   0  0  0  0  0  0  0  0  0  0  0  0
    2.9208   -0.9815    2.4344 H   0  0  0  0  0  0  0  0  0  0  0  0
    2.8906   -1.7279    4.0179 H   0  0  0  0  0  0  0  0  0  0  0  0
   -6.6884   -2.8736   -0.3069 H   0  0  0  0  0  0  0  0  0  0  0  0
   -7.8899   -3.8750    0.6180 H   0  0  0  0  0  0  0  0  0  0  0  0
   -9.7139   -2.2744   -0.0105 H   0  0  0  0  0  0  0  0  0  0  0  0
   -8.5165   -1.2692   -0.9367 H   0  0  0  0  0  0  0  0  0  0  0  0
   -5.4033    1.0026   -5.2027 H   0  0  0  0  0  0  0  0  0  0  0  0
   -4.0930    1.7304   -4.1822 H   0  0  0  0  0  0  0  0  0  0  0  0
   -3.4537    2.1724    0.2966 H   0  0  0  0  0  0  0  0  0  0  0  0
   -2.5185    1.3404    1.5501 H   0  0  0  0  0  0  0  0  0  0  0  0
    0.6999   -2.5175    5.0527 H   0  0  0  0  0  0  0  0  0  0  0  0
   -0.8563   -1.9548    4.2972 H   0  0  0  0  0  0  0  0  0  0  0  0
   -1.1960   -0.6188   -1.5779 H   0  0  0  0  0  0  0  0  0  0  0  0
   -0.5816   -0.6073    0.1032 H   0  0  0  0  0  0  0  0  0  0  0  0
   -0.8062   -2.7188   -0.5636 H   0  0  0  0  0  0  0  0  0  0  0  0
   -5.7289    2.2666   -2.3835 H   0  0  0  0  0  0  0  0  0  0  0  0
   -4.1646   -0.3688    1.1631 H   0  0  0  0  0  0  0  0  0  0  0  0
    0.4074   -0.5835    2.6309 H   0  0  0  0  0  0  0  0  0  0  0  0
   -2.0276    1.6001   -1.4505 H   0  0  0  0  0  0  0  0  0  0  0  0
    1.4351   -3.4939    2.8636 H   0  0  0  0  0  0  0  0  0  0  0  0
   -9.2252   -4.2628   -1.4929 H   0  0  0  0  0  0  0  0  0  0  0  0
   -1.2325   -5.2914   -3.2596 H   0  0  0  0  0  0  0  0  0  0  0  0
   -0.8936   -5.6514   -1.5603 H   0  0  0  0  0  0  0  0  0  0  0  0
   -0.0374   -4.3332   -2.3733 H   0  0  0  0  0  0  0  0  0  0  0  0
   -2.4854   -3.1546   -3.8863 H   0  0  0  0  0  0  0  0  0  0  0  0
   -3.0157   -2.0273   -2.6294 H   0  0  0  0  0  0  0  0  0  0  0  0
   -1.2945   -2.1810   -3.0110 H   0  0  0  0  0  0  0  0  0  0  0  0
   -3.7176   -5.0510   -2.7166 H   0  0  0  0  0  0  0  0  0  0  0  0
   -4.2588   -3.9411   -1.4488 H   0  0  0  0  0  0  0  0  0  0  0  0
   -3.3855   -5.4189   -1.0176 H   0  0  0  0  0  0  0  0  0  0  0  0
    3.0289    2.3743   -8.3733 H   0  0  0  0  0  0  0  0  0  0  0  0
    4.1382    2.0305   -7.0098 H   0  0  0  0  0  0  0  0  0  0  0  0
    3.4512    3.6632   -7.2160 H   0  0  0  0  0  0  0  0  0  0  0  0
   -1.2843   -5.8774    2.2469 H   0  0  0  0  0  0  0  0  0  0  0  0
   -5.9808    0.5089    0.5033 H   0  0  0  0  0  0  0  0  0  0  0  0
   -6.3156   -2.2781   -4.9644 H   0  0  0  0  0  0  0  0  0  0  0  0
  1  2  2  0  0  0  0
  1  4  1  0  0  0  0
  1 55  1  0  0  0  0
  2  6  1  0  0  0  0
  2 56  1  0  0  0  0
  3  5  1  0  0  0  0
  3  6  2  0  0  0  0
  3 57  1  0  0  0  0
  4  5  2  0  0  0  0
  4 39  1  0  0  0  0
  5 40  1  0  0  0  0
  6 53  1  0  0  0  0
  7  8  1  0  0  0  0
  7 15  1  0  0  0  0
  7 39  2  0  0  0  0
  8 40  2  0  0  0  0
  8 48  1  0  0  0  0
  9 26  1  0  0  0  0
  9 44  1  0  0  0  0
  9 45  2  0  0  0  0
 10 41  2  0  0  0  0
 10 49  1  0  0  0  0
 10 50  1  0  0  0  0
 11 12  2  0  0  0  0
 11 58  1  0  0  0  0
 11 59  1  0  0  0  0
 12 27  1  0  0  0  0
 12 60  1  0  0  0  0
 13 28  1  0  0  0  0
 13 42  2  0  0  0  0
 13 51  1  0  0  0  0
 14 43  2  0  0  0  0
 14 52  1  0  0  0  0
 15 16  1  0  0  0  0
 15 61  1  0  0  0  0
 15 62  1  0  0  0  0
 16 17  1  0  0  0  0
 16 63  1  0  0  0  0
 16 64  1  0  0  0  0
 17 18  1  0  0  0  0
 17 65  1  0  0  0  0
 17 66  1  0  0  0  0
 18 19  1  0  0  0  0
 18 67  1  0  0  0  0
 18 68  1  0  0  0  0
 19 29  1  0  0  0  0
 19 69  1  0  0  0  0
 19 70  1  0  0  0  0
 20 21  1  0  0  0  0
 20 32  1  0  0  0  0
 20 71  1  0  0  0  0
 20 72  1  0  0  0  0
 21 32  1  0  0  0  0
 21 73  1  0  0  0  0
 21 74  1  0  0  0  0
 22 27  1  0  0  0  0
 22 33  1  0  0  0  0
 22 75  1  0  0  0  0
 22 76  1  0  0  0  0
 23 28  1  0  0  0  0
 23 30  1  0  0  0  0
 23 77  1  0  0  0  0
 23 78  1  0  0  0  0
 24 29  1  0  0  0  0
 24 31  1  0  0  0  0
 24 79  1  0  0  0  0
 24 80  1  0  0  0  0
 25 30  1  0  0  0  0
 25 44  1  0  0  0  0
 25 81  1  0  0  0  0
 25 82  1  0  0  0  0
 26 38  1  0  0  0  0
 26 41  1  0  0  0  0
 26 83  1  6  0  0  0
 27 33  1  1  0  0  0
 27 84  1  0  0  0  0
 28 44  1  0  0  0  0
 28 85  1  1  0  0  0
 29 31  1  6  0  0  0
 29 86  1  0  0  0  0
 30 48  1  0  0  0  0
 30 87  1  6  0  0  0
 31 49  1  0  0  0  0
 31 88  1  1  0  0  0
 32 54  1  0  0  0  0
 32 89  1  0  0  0  0
 33 14  1  6  0  0  0
 33 42  1  0  0  0  0
 34 38  1  0  0  0  0
 34 90  1  0  0  0  0
 34 91  1  0  0  0  0
 34 92  1  0  0  0  0
 35 38  1  0  0  0  0
 35 93  1  0  0  0  0
 35 94  1  0  0  0  0
 35 95  1  0  0  0  0
 36 38  1  0  0  0  0
 36 96  1  0  0  0  0
 36 97  1  0  0  0  0
 36 98  1  0  0  0  0
 37 53  1  0  0  0  0
 37 99  1  0  0  0  0
 37100  1  0  0  0  0
 37101  1  0  0  0  0
 43 54  1  0  0  0  0
 46 54  2  0  0  0  0
 47 54  2  0  0  0  0
 50102  1  0  0  0  0
 51103  1  0  0  0  0
 52104  1  0  0  0  0
M  END
$$$$
DrugBank_2082
 OpenBabel01151909533D

 47 48  0  0  1  0  0  0  0  0999 V2000
   -0.3896    1.1297   -1.6723 C   0  0  0  0  0  0  0  0  0  0  0  0
    0.5369    0.8141   -0.7579 C   0  0  0  0  0  0  0  0  0  0  0  0
    1.5168    1.8833   -0.3340 C   0  0  0  0  0  0  0  0  0  0  0  0
   -1.4195    0.1387   -2.1153 C   0  0  2  0  0  0  0  0  0  0  0  0
    2.4850   -5.1334    0.7685 C   0  0  1  0  0  0  0  0  0  0  0  0
   -1.4766   -1.0400   -1.1400 C   0  0  2  0  0  0  0  0  0  0  0  0
    1.2364   -4.4831    0.1625 C   0  0  1  0  0  0  0  0  0  0  0  0
    1.0988   -3.0230    0.6017 C   0  0  2  0  0  0  0  0  0  0  0  0
    1.2441   -2.8955    2.1200 C   0  0  2  0  0  0  0  0  0  0  0  0
    2.5805   -4.8539    2.2735 C   0  0  2  0  0  0  0  0  0  0  0  0
   -0.0617   -1.4831   -0.7535 C   0  0  1  0  0  0  0  0  0  0  0  0
    1.2236   -1.4417    2.5822 C   0  0  0  0  0  0  0  0  0  0  0  0
    2.4176   -6.6037    0.5474 N   0  0  0  0  0  0  0  0  0  0  0  0
    1.0770    3.0676   -0.3841 O   0  0  0  0  0  0  0  0  0  0  0  0
    4.9178   -6.7420    0.1534 O   0  0  0  0  0  0  0  0  0  0  0  0
   -4.1930   -1.5586   -0.4177 O   0  0  0  0  0  0  0  0  0  0  0  0
    2.6553    1.4614    0.0186 O   0  0  0  0  0  0  0  0  0  0  0  0
    3.5264   -8.7459   -0.1538 O   0  0  0  0  0  0  0  0  0  0  0  0
    3.3932   -6.8989   -1.7715 O   0  0  0  0  0  0  0  0  0  0  0  0
   -4.1961   -3.4842   -1.9388 O   0  0  0  0  0  0  0  0  0  0  0  0
   -4.1843   -1.2066   -2.8519 O   0  0  0  0  0  0  0  0  0  0  0  0
    0.6858   -0.4127   -0.1589 O   0  0  0  0  0  0  0  0  0  0  0  0
    2.4883   -3.4549    2.5411 O   0  0  0  0  0  0  0  0  0  0  0  0
   -1.0633   -0.3212   -3.4182 O   0  0  0  0  0  0  0  0  0  0  0  0
    1.3457   -4.5311   -1.2613 O   0  0  0  0  0  0  0  0  0  0  0  0
    3.8399   -5.3424    2.7347 O   0  0  0  0  0  0  0  0  0  0  0  0
    1.3516   -1.4152    3.9920 O   0  0  0  0  0  0  0  0  0  0  0  0
   -0.1804   -2.5554    0.1820 O   0  0  0  0  0  0  0  0  0  0  0  0
   -2.1964   -2.1145   -1.7336 O   0  0  0  0  0  0  0  0  0  0  0  0
    3.6921   -7.3145   -0.4019 S   0  0  0  0  0  0  0  0  0  0  0  0
   -3.8339   -2.0824   -1.7347 S   0  0  0  0  0  0  0  0  0  0  0  0
   -0.4191    2.1245   -2.1128 H   0  0  0  0  0  0  0  0  0  0  0  0
   -2.3738    0.6395   -2.1817 H   0  0  0  0  0  0  0  0  0  0  0  0
    3.3844   -4.7710    0.2541 H   0  0  0  0  0  0  0  0  0  0  0  0
   -2.0471   -0.7222   -0.2467 H   0  0  0  0  0  0  0  0  0  0  0  0
    0.3333   -5.0458    0.4317 H   0  0  0  0  0  0  0  0  0  0  0  0
    1.8599   -2.4240    0.0853 H   0  0  0  0  0  0  0  0  0  0  0  0
    0.4224   -3.4167    2.6289 H   0  0  0  0  0  0  0  0  0  0  0  0
    1.7931   -5.3841    2.8247 H   0  0  0  0  0  0  0  0  0  0  0  0
    0.4777   -1.8280   -1.6121 H   0  0  0  0  0  0  0  0  0  0  0  0
    0.2813   -0.9740    2.2970 H   0  0  0  0  0  0  0  0  0  0  0  0
    2.0550   -0.8971    2.1345 H   0  0  0  0  0  0  0  0  0  0  0  0
    2.1460   -7.1203    1.3890 H   0  0  0  0  0  0  0  0  0  0  0  0
   -1.7432   -0.9609   -3.6842 H   0  0  0  0  0  0  0  0  0  0  0  0
    1.4075   -5.4683   -1.4985 H   0  0  0  0  0  0  0  0  0  0  0  0
    3.8755   -5.1544    3.6847 H   0  0  0  0  0  0  0  0  0  0  0  0
    1.3361   -0.4813    4.2626 H   0  0  0  0  0  0  0  0  0  0  0  0
  1  2  2  0  0  0  0
  1  4  1  0  0  0  0
  1 32  1  0  0  0  0
  2  3  1  0  0  0  0
  2 22  1  0  0  0  0
  3 14  1  0  0  0  0
  3 17  2  0  0  0  0
  4  6  1  1  0  0  0
  4 24  1  0  0  0  0
  4 33  1  0  0  0  0
  5  7  1  6  0  0  0
  5 13  1  0  0  0  0
  5 34  1  0  0  0  0
  6 11  1  1  0  0  0
  6 29  1  0  0  0  0
  6 35  1  0  0  0  0
  7  8  1  1  0  0  0
  7 25  1  0  0  0  0
  7 36  1  0  0  0  0
  8  9  1  1  0  0  0
  8 28  1  0  0  0  0
  8 37  1  0  0  0  0
  9 12  1  0  0  0  0
  9 23  1  0  0  0  0
  9 38  1  1  0  0  0
 10  5  1  6  0  0  0
 10 23  1  0  0  0  0
 10 26  1  0  0  0  0
 10 39  1  0  0  0  0
 11 22  1  0  0  0  0
 11 28  1  0  0  0  0
 11 40  1  6  0  0  0
 12 27  1  0  0  0  0
 12 41  1  0  0  0  0
 12 42  1  0  0  0  0
 13 30  1  0  0  0  0
 13 43  1  0  0  0  0
 15 30  1  0  0  0  0
 16 31  1  0  0  0  0
 18 30  2  0  0  0  0
 19 30  2  0  0  0  0
 20 31  2  0  0  0  0
 21 31  2  0  0  0  0
 24 44  1  0  0  0  0
 25 45  1  0  0  0  0
 26 46  1  0  0  0  0
 27 47  1  0  0  0  0
 29 31  1  0  0  0  0
M  END
$$$$
DrugBank_2095
 OpenBabel01151909533D

 53 54  0  0  1  0  0  0  0  0999 V2000
    2.3054   -3.7490    1.2574 C   0  0  0  0  0  0  0  0  0  0  0  0
    4.0263   -2.7690   -0.1265 C   0  0  0  0  0  0  0  0  0  0  0  0
    1.8617   -2.4741    1.6085 C   0  0  0  0  0  0  0  0  0  0  0  0
    3.5825   -1.4941    0.2245 C   0  0  0  0  0  0  0  0  0  0  0  0
    3.3878   -3.8965    0.3899 C   0  0  0  0  0  0  0  0  0  0  0  0
    2.5002   -1.3466    1.0920 C   0  0  0  0  0  0  0  0  0  0  0  0
   -1.4135    0.6370    1.2119 C   0  0  0  0  0  0  0  0  0  0  0  0
   -0.9642   -0.3010   -1.0652 C   0  0  0  0  0  0  0  0  0  0  0  0
    1.2759    0.5263   -1.1066 C   0  0  0  0  0  0  0  0  0  0  0  0
   -0.4978   -0.1925    0.3820 C   0  0  1  0  0  0  0  0  0  0  0  0
    0.3357   -0.4207   -1.8421 C   0  0  1  0  0  0  0  0  0  0  0  0
    2.6606   -9.3757   -2.1651 C   0  0  0  0  0  0  0  0  0  0  0  0
   -0.4896   -3.2706   -3.5617 C   0  0  0  0  0  0  0  0  0  0  0  0
    2.2576   -8.3618   -1.1064 C   0  0  0  0  0  0  0  0  0  0  0  0
    3.2676   -7.2217   -1.0108 C   0  0  0  0  0  0  0  0  0  0  0  0
    2.8458   -6.1820    0.0177 C   0  0  0  0  0  0  0  0  0  0  0  0
    0.7931    0.5445    0.3092 N   0  0  0  0  0  0  0  0  0  0  0  0
   -1.8633   -0.0151    2.3299 N   0  0  0  0  0  0  0  0  0  0  0  0
    0.8512   -1.8110   -1.7579 N   0  0  0  0  0  0  0  0  0  0  0  0
   -1.7157    1.7822    0.8830 O   0  0  0  0  0  0  0  0  0  0  0  0
    1.2599    0.1591    2.8147 O   0  0  0  0  0  0  0  0  0  0  0  0
    3.0517    1.1838    1.3700 O   0  0  0  0  0  0  0  0  0  0  0  0
    1.9921   -3.8134   -2.9317 O   0  0  0  0  0  0  0  0  0  0  0  0
    1.4921   -1.7122   -4.2322 O   0  0  0  0  0  0  0  0  0  0  0  0
   -2.7403    0.7112    3.1471 O   0  0  0  0  0  0  0  0  0  0  0  0
    3.8206   -5.1406    0.0469 O   0  0  0  0  0  0  0  0  0  0  0  0
    1.9387    0.2687    1.5374 S   0  0  0  0  0  0  0  0  0  0  0  0
    1.1438   -2.6685   -3.1990 S   0  0  0  0  0  0  0  0  0  0  0  0
    1.8036   -4.6236    1.6623 H   0  0  0  0  0  0  0  0  0  0  0  0
    4.8699   -2.8776   -0.8027 H   0  0  0  0  0  0  0  0  0  0  0  0
    1.0177   -2.3708    2.2851 H   0  0  0  0  0  0  0  0  0  0  0  0
    4.0873   -0.6224   -0.1832 H   0  0  0  0  0  0  0  0  0  0  0  0
   -1.6340   -1.1553   -1.2099 H   0  0  0  0  0  0  0  0  0  0  0  0
   -1.5047    0.6012   -1.3785 H   0  0  0  0  0  0  0  0  0  0  0  0
    2.3236    0.2175   -1.1773 H   0  0  0  0  0  0  0  0  0  0  0  0
    1.1854    1.5461   -1.4971 H   0  0  0  0  0  0  0  0  0  0  0  0
   -0.3622   -1.1791    0.8383 H   0  0  0  0  0  0  0  0  0  0  0  0
    0.2221   -0.1620   -2.8943 H   0  0  0  0  0  0  0  0  0  0  0  0
    3.6486   -9.7956   -1.9503 H   0  0  0  0  0  0  0  0  0  0  0  0
    1.9406  -10.1988   -2.2141 H   0  0  0  0  0  0  0  0  0  0  0  0
    2.7004   -8.9001   -3.1499 H   0  0  0  0  0  0  0  0  0  0  0  0
   -0.4454   -3.8519   -4.4841 H   0  0  0  0  0  0  0  0  0  0  0  0
   -0.8182   -3.8965   -2.7306 H   0  0  0  0  0  0  0  0  0  0  0  0
   -1.1538   -2.4135   -3.6812 H   0  0  0  0  0  0  0  0  0  0  0  0
    1.2666   -7.9617   -1.3505 H   0  0  0  0  0  0  0  0  0  0  0  0
    2.1737   -8.8677   -0.1376 H   0  0  0  0  0  0  0  0  0  0  0  0
    4.2581   -7.6127   -0.7468 H   0  0  0  0  0  0  0  0  0  0  0  0
    3.3876   -6.7378   -1.9882 H   0  0  0  0  0  0  0  0  0  0  0  0
    1.8769   -5.7447   -0.2436 H   0  0  0  0  0  0  0  0  0  0  0  0
    2.7795   -6.6248    1.0166 H   0  0  0  0  0  0  0  0  0  0  0  0
   -1.5797   -0.9628    2.5519 H   0  0  0  0  0  0  0  0  0  0  0  0
    0.4779   -2.3359   -0.9617 H   0  0  0  0  0  0  0  0  0  0  0  0
   -2.9095    0.0574    3.8463 H   0  0  0  0  0  0  0  0  0  0  0  0
  1  3  2  0  0  0  0
  1  5  1  0  0  0  0
  1 29  1  0  0  0  0
  2  4  1  0  0  0  0
  2  5  2  0  0  0  0
  2 30  1  0  0  0  0
  3  6  1  0  0  0  0
  3 31  1  0  0  0  0
  4  6  2  0  0  0  0
  4 32  1  0  0  0  0
  5 26  1  0  0  0  0
  6 27  1  0  0  0  0
  7 10  1  0  0  0  0
  7 18  1  0  0  0  0
  7 20  2  0  0  0  0
  8 10  1  0  0  0  0
  8 11  1  0  0  0  0
  8 33  1  0  0  0  0
  8 34  1  0  0  0  0
  9 11  1  0  0  0  0
  9 17  1  0  0  0  0
  9 35  1  0  0  0  0
  9 36  1  0  0  0  0
 10 17  1  0  0  0  0
 10 37  1  1  0  0  0
 11 19  1  0  0  0  0
 11 38  1  6  0  0  0
 12 14  1  0  0  0  0
 12 39  1  0  0  0  0
 12 40  1  0  0  0  0
 12 41  1  0  0  0  0
 13 28  1  0  0  0  0
 13 42  1  0  0  0  0
 13 43  1  0  0  0  0
 13 44  1  0  0  0  0
 14 15  1  0  0  0  0
 14 45  1  0  0  0  0
 14 46  1  0  0  0  0
 15 16  1  0  0  0  0
 15 47  1  0  0  0  0
 15 48  1  0  0  0  0
 16 26  1  0  0  0  0
 16 49  1  0  0  0  0
 16 50  1  0  0  0  0
 17 27  1  0  0  0  0
 18 25  1  0  0  0  0
 18 51  1  0  0  0  0
 19 28  1  0  0  0  0
 19 52  1  0  0  0  0
 21 27  2  0  0  0  0
 22 27  2  0  0  0  0
 23 28  2  0  0  0  0
 24 28  2  0  0  0  0
 25 53  1  0  0  0  0
M  END
$$$$
DrugBank_2099
 OpenBabel01151909533D

 29 28  0  0  0  0  0  0  0  0999 V2000
    1.1620   -2.7024   -0.3607 C   0  0  0  0  0  0  0  0  0  0  0  0
   -0.1334   -3.2405    3.1169 C   0  0  0  0  0  0  0  0  0  0  0  0
    0.2578   -4.8872    1.2331 C   0  0  0  0  0  0  0  0  0  0  0  0
    2.1932   -3.5315    2.1615 C   0  0  0  0  0  0  0  0  0  0  0  0
    0.5752   -1.9411   -1.5338 C   0  0  0  0  0  0  0  0  0  0  0  0
    0.6836   -3.5320    1.8403 C   0  0  0  0  0  0  0  0  0  0  0  0
    0.4148   -2.4784    0.8688 N   0  0  0  0  0  0  0  0  0  0  0  0
    1.5158   -3.5853   -3.3493 O   0  0  0  0  0  0  0  0  0  0  0  0
    2.7335   -1.4052   -2.9223 O   0  0  0  0  0  0  0  0  0  0  0  0
   -1.5269   -3.1970    2.8283 O   0  0  0  0  0  0  0  0  0  0  0  0
    0.0397   -5.8745    2.2352 O   0  0  0  0  0  0  0  0  0  0  0  0
    2.5036   -4.5210    3.1374 O   0  0  0  0  0  0  0  0  0  0  0  0
    0.4835   -1.4031   -4.0293 O   0  0  0  0  0  0  0  0  0  0  0  0
    1.5050   -2.1725   -3.0169 S   0  0  0  0  0  0  0  0  0  0  0  0
    1.1749   -3.7807   -0.5475 H   0  0  0  0  0  0  0  0  0  0  0  0
    2.1884   -2.3724   -0.1735 H   0  0  0  0  0  0  0  0  0  0  0  0
    0.0296   -4.0249    3.8645 H   0  0  0  0  0  0  0  0  0  0  0  0
    0.1435   -2.2768    3.5586 H   0  0  0  0  0  0  0  0  0  0  0  0
    1.0294   -5.2806    0.5625 H   0  0  0  0  0  0  0  0  0  0  0  0
   -0.6658   -4.7860    0.6517 H   0  0  0  0  0  0  0  0  0  0  0  0
    2.5173   -2.5638    2.5593 H   0  0  0  0  0  0  0  0  0  0  0  0
    2.7779   -3.7531    1.2619 H   0  0  0  0  0  0  0  0  0  0  0  0
    0.5835   -0.8657   -1.3324 H   0  0  0  0  0  0  0  0  0  0  0  0
   -0.4517   -2.2523   -1.7476 H   0  0  0  0  0  0  0  0  0  0  0  0
   -0.5824   -2.4642    0.6587 H   0  0  0  0  0  0  0  0  0  0  0  0
   -1.9785   -3.0115    3.6666 H   0  0  0  0  0  0  0  0  0  0  0  0
   -0.2218   -6.6865    1.7729 H   0  0  0  0  0  0  0  0  0  0  0  0
    3.4598   -4.4676    3.2921 H   0  0  0  0  0  0  0  0  0  0  0  0
   -0.3883   -1.8433   -4.1656 H   0  0  0  0  0  0  0  0  0  0  0  0
  1  5  1  0  0  0  0
  1  7  1  0  0  0  0
  1 15  1  0  0  0  0
  1 16  1  0  0  0  0
  2  6  1  0  0  0  0
  2 10  1  0  0  0  0
  2 17  1  0  0  0  0
  2 18  1  0  0  0  0
  3  6  1  0  0  0  0
  3 11  1  0  0  0  0
  3 19  1  0  0  0  0
  3 20  1  0  0  0  0
  4  6  1  0  0  0  0
  4 12  1  0  0  0  0
  4 21  1  0  0  0  0
  4 22  1  0  0  0  0
  5 14  1  0  0  0  0
  5 23  1  0  0  0  0
  5 24  1  0  0  0  0
  6  7  1  0  0  0  0
  7 25  1  0  0  0  0
  8 14  2  0  0  0  0
  9 14  2  0  0  0  0
 10 26  1  0  0  0  0
 11 27  1  0  0  0  0
 12 28  1  0  0  0  0
 13 14  1  0  0  0  0
 13 29  1  0  0  0  0
M  END
$$$$
DrugBank_4778
 OpenBabel01151909533D

 63 64  0  0  1  0  0  0  0  0999 V2000
    5.3405   -1.3679    5.5244 C   0  0  0  0  0  0  0  0  0  0  0  0
    4.3917   -0.3516    5.6360 C   0  0  0  0  0  0  0  0  0  0  0  0
    5.8934   -1.6723    4.2805 C   0  0  0  0  0  0  0  0  0  0  0  0
   -3.5938   -3.0985    3.5475 C   0  0  0  0  0  0  0  0  0  0  0  0
    3.9957    0.3603    4.5037 C   0  0  0  0  0  0  0  0  0  0  0  0
    5.4974   -0.9604    3.1482 C   0  0  0  0  0  0  0  0  0  0  0  0
   -4.2064   -1.8945    3.8949 C   0  0  0  0  0  0  0  0  0  0  0  0
   -2.2670   -3.1073    3.1170 C   0  0  0  0  0  0  0  0  0  0  0  0
   -2.1655   -0.7079    3.3811 C   0  0  0  0  0  0  0  0  0  0  0  0
    4.5486    0.0559    3.2598 C   0  0  0  0  0  0  0  0  0  0  0  0
   -3.4922   -0.6992    3.8117 C   0  0  0  0  0  0  0  0  0  0  0  0
   -1.5529   -1.9120    3.0338 C   0  0  0  0  0  0  0  0  0  0  0  0
    0.7875   -2.7061    3.5136 C   0  0  0  0  0  0  0  0  0  0  0  0
   -2.0993    1.8281    0.3234 C   0  0  0  0  0  0  0  0  0  0  0  0
   -1.6080    0.9768   -1.9778 C   0  0  0  0  0  0  0  0  0  0  0  0
    4.1203    0.8258    2.0339 C   0  0  0  0  0  0  0  0  0  0  0  0
   -4.1475    0.5876    4.1847 C   0  0  0  0  0  0  0  0  0  0  0  0
    0.0513   -2.4459    1.1313 C   0  0  0  0  0  0  0  0  0  0  0  0
    2.9272    0.1983    1.3232 C   0  0  0  0  0  0  0  0  0  0  0  0
   -0.1064   -1.9216    2.5637 C   0  0  1  0  0  0  0  0  0  0  0  0
   -1.0008    1.3351   -0.6202 C   0  0  0  0  0  0  0  0  0  0  0  0
   -0.1708    0.1969    0.0088 C   0  0  2  0  0  0  0  0  0  0  0  0
   -5.0667    1.0472    3.1747 N   0  0  0  0  0  0  0  0  0  0  0  0
    1.1451    0.1383   -0.6755 N   0  0  0  0  0  0  0  0  0  0  0  0
    1.0721   -3.8914    3.4033 O   0  0  0  0  0  0  0  0  0  0  0  0
   -2.3197   -1.5772    0.0601 O   0  0  0  0  0  0  0  0  0  0  0  0
    2.0077    2.3929    0.2417 O   0  0  0  0  0  0  0  0  0  0  0  0
    3.5460    0.9131   -1.1003 O   0  0  0  0  0  0  0  0  0  0  0  0
    1.2543   -1.9347    4.5313 O   0  0  0  0  0  0  0  0  0  0  0  0
   -0.2546   -2.0547   -1.4660 O   0  0  0  0  0  0  0  0  0  0  0  0
   -0.8289   -1.4680   -0.0727 P   0  0  2  0  0  0  0  0  0  0  0  0
    2.4607    1.0731   -0.1513 S   0  0  0  0  0  0  0  0  0  0  0  0
    5.6497   -1.9212    6.4064 H   0  0  0  0  0  0  0  0  0  0  0  0
    3.9618   -0.1137    6.6047 H   0  0  0  0  0  0  0  0  0  0  0  0
    6.6329   -2.4628    4.1933 H   0  0  0  0  0  0  0  0  0  0  0  0
   -4.1500   -4.0292    3.6125 H   0  0  0  0  0  0  0  0  0  0  0  0
    3.2556    1.1504    4.6002 H   0  0  0  0  0  0  0  0  0  0  0  0
    5.9335   -1.2046    2.1831 H   0  0  0  0  0  0  0  0  0  0  0  0
   -5.2404   -1.8974    4.2298 H   0  0  0  0  0  0  0  0  0  0  0  0
   -1.7981   -4.0500    2.8477 H   0  0  0  0  0  0  0  0  0  0  0  0
   -1.6079    0.2235    3.3170 H   0  0  0  0  0  0  0  0  0  0  0  0
   -2.8104    1.0216    0.5343 H   0  0  0  0  0  0  0  0  0  0  0  0
   -2.6606    2.6549   -0.1237 H   0  0  0  0  0  0  0  0  0  0  0  0
   -1.6946    2.1630    1.2823 H   0  0  0  0  0  0  0  0  0  0  0  0
   -2.2924    0.1272   -1.8753 H   0  0  0  0  0  0  0  0  0  0  0  0
   -2.1813    1.8105   -2.3946 H   0  0  0  0  0  0  0  0  0  0  0  0
   -0.8396    0.6880   -2.7011 H   0  0  0  0  0  0  0  0  0  0  0  0
    4.9660    0.8669    1.3351 H   0  0  0  0  0  0  0  0  0  0  0  0
    3.8937    1.8664    2.2986 H   0  0  0  0  0  0  0  0  0  0  0  0
   -4.7111    0.4877    5.1229 H   0  0  0  0  0  0  0  0  0  0  0  0
   -3.4085    1.3853    4.3422 H   0  0  0  0  0  0  0  0  0  0  0  0
    1.1069   -2.4344    0.8371 H   0  0  0  0  0  0  0  0  0  0  0  0
   -0.2803   -3.4858    1.0405 H   0  0  0  0  0  0  0  0  0  0  0  0
    3.1778   -0.8178    1.0021 H   0  0  0  0  0  0  0  0  0  0  0  0
    2.0400    0.1485    1.9619 H   0  0  0  0  0  0  0  0  0  0  0  0
    0.2453   -0.8808    2.5788 H   0  0  0  0  0  0  0  0  0  0  0  0
   -0.3288    2.1875   -0.7874 H   0  0  0  0  0  0  0  0  0  0  0  0
   -0.0048    0.4294    1.0669 H   0  0  0  0  0  0  0  0  0  0  0  0
   -5.2631    2.0316    3.1045 H   0  0  0  0  0  0  0  0  0  0  0  0
   -5.6451    0.3753    2.6987 H   0  0  0  0  0  0  0  0  0  0  0  0
    1.3015   -0.6535   -1.3109 H   0  0  0  0  0  0  0  0  0  0  0  0
    0.9605   -0.9990    4.5183 H   0  0  0  0  0  0  0  0  0  0  0  0
   -0.4068   -2.9989   -1.6844 H   0  0  0  0  0  0  0  0  0  0  0  0
  1  2  2  0  0  0  0
  1  3  1  0  0  0  0
  1 33  1  0  0  0  0
  2  5  1  0  0  0  0
  2 34  1  0  0  0  0
  3  6  2  0  0  0  0
  3 35  1  0  0  0  0
  4  7  2  0  0  0  0
  4  8  1  0  0  0  0
  4 36  1  0  0  0  0
  5 10  2  0  0  0  0
  5 37  1  0  0  0  0
  6 10  1  0  0  0  0
  6 38  1  0  0  0  0
  7 11  1  0  0  0  0
  7 39  1  0  0  0  0
  8 12  2  0  0  0  0
  8 40  1  0  0  0  0
  9 11  2  0  0  0  0
  9 12  1  0  0  0  0
  9 41  1  0  0  0  0
 10 16  1  0  0  0  0
 11 17  1  0  0  0  0
 12 20  1  0  0  0  0
 13 20  1  0  0  0  0
 13 25  2  0  0  0  0
 13 29  1  0  0  0  0
 14 21  1  0  0  0  0
 14 42  1  0  0  0  0
 14 43  1  0  0  0  0
 14 44  1  0  0  0  0
 15 21  1  0  0  0  0
 15 45  1  0  0  0  0
 15 46  1  0  0  0  0
 15 47  1  0  0  0  0
 16 19  1  0  0  0  0
 16 48  1  0  0  0  0
 16 49  1  0  0  0  0
 17 23  1  0  0  0  0
 17 50  1  0  0  0  0
 17 51  1  0  0  0  0
 18 20  1  0  0  0  0
 18 31  1  0  0  0  0
 18 52  1  0  0  0  0
 18 53  1  0  0  0  0
 19 32  1  0  0  0  0
 19 54  1  0  0  0  0
 19 55  1  0  0  0  0
 20 56  1  1  0  0  0
 21 22  1  0  0  0  0
 21 57  1  0  0  0  0
 22 24  1  0  0  0  0
 22 31  1  0  0  0  0
 22 58  1  1  0  0  0
 23 59  1  0  0  0  0
 23 60  1  0  0  0  0
 24 32  1  0  0  0  0
 24 61  1  0  0  0  0
 27 32  2  0  0  0  0
 28 32  2  0  0  0  0
 29 62  1  0  0  0  0
 30 31  1  0  0  0  0
 30 63  1  0  0  0  0
 31 26  2  1  0  0  0
M  END
$$$$
DrugBank_2131
 OpenBabel01151909533D

 38 37  0  0  0  0  0  0  0  0999 V2000
   -2.4404   -6.6563   -3.1829 C   0  0  0  0  0  0  0  0  0  0  0  0
   -2.7083   -5.3634   -2.4464 C   0  0  0  0  0  0  0  0  0  0  0  0
   -1.4399   -4.5257   -2.2871 C   0  0  0  0  0  0  0  0  0  0  0  0
   -1.6890   -3.1656   -1.6296 C   0  0  0  0  0  0  0  0  0  0  0  0
   -0.4593   -2.2626   -1.4869 C   0  0  0  0  0  0  0  0  0  0  0  0
   -0.7168   -0.8800   -0.8804 C   0  0  0  0  0  0  0  0  0  0  0  0
    0.5286    0.0081   -0.8426 C   0  0  0  0  0  0  0  0  0  0  0  0
    0.2230    1.3639   -0.1997 C   0  0  0  0  0  0  0  0  0  0  0  0
    1.4608    2.2637   -0.1910 C   0  0  0  0  0  0  0  0  0  0  0  0
    1.2323    3.6082    0.5056 C   0  0  0  0  0  0  0  0  0  0  0  0
    2.4892    4.4776    0.5795 C   0  0  0  0  0  0  0  0  0  0  0  0
    2.1885    5.8103    1.2460 C   0  0  0  0  0  0  0  0  0  0  0  0
   -1.3558   -7.0120   -3.6223 O   0  0  0  0  0  0  0  0  0  0  0  0
   -3.5693   -7.4038   -3.2990 O   0  0  0  0  0  0  0  0  0  0  0  0
    3.7942    6.9109    1.2731 Br  0  0  0  0  0  0  0  0  0  0  0  0
   -3.4533   -4.7948   -3.0140 H   0  0  0  0  0  0  0  0  0  0  0  0
   -3.1203   -5.6192   -1.4649 H   0  0  0  0  0  0  0  0  0  0  0  0
   -0.6884   -5.0887   -1.7211 H   0  0  0  0  0  0  0  0  0  0  0  0
   -0.9984   -4.3496   -3.2766 H   0  0  0  0  0  0  0  0  0  0  0  0
   -2.1127   -3.3283   -0.6304 H   0  0  0  0  0  0  0  0  0  0  0  0
   -2.4630   -2.6383   -2.1997 H   0  0  0  0  0  0  0  0  0  0  0  0
    0.2816   -2.7869   -0.8700 H   0  0  0  0  0  0  0  0  0  0  0  0
    0.0096   -2.1307   -2.4694 H   0  0  0  0  0  0  0  0  0  0  0  0
   -1.1324   -0.9821    0.1286 H   0  0  0  0  0  0  0  0  0  0  0  0
   -1.4899   -0.3856   -1.4820 H   0  0  0  0  0  0  0  0  0  0  0  0
    0.9018    0.1614   -1.8623 H   0  0  0  0  0  0  0  0  0  0  0  0
    1.3251   -0.4856   -0.2747 H   0  0  0  0  0  0  0  0  0  0  0  0
   -0.1284    1.2111    0.8278 H   0  0  0  0  0  0  0  0  0  0  0  0
   -0.5891    1.8478   -0.7536 H   0  0  0  0  0  0  0  0  0  0  0  0
    1.8010    2.4356   -1.2195 H   0  0  0  0  0  0  0  0  0  0  0  0
    2.2766    1.7452    0.3283 H   0  0  0  0  0  0  0  0  0  0  0  0
    0.4324    4.1564   -0.0068 H   0  0  0  0  0  0  0  0  0  0  0  0
    0.8755    3.4081    1.5238 H   0  0  0  0  0  0  0  0  0  0  0  0
    3.2704    3.9475    1.1384 H   0  0  0  0  0  0  0  0  0  0  0  0
    2.8830    4.6540   -0.4281 H   0  0  0  0  0  0  0  0  0  0  0  0
    1.4291    6.3784    0.7019 H   0  0  0  0  0  0  0  0  0  0  0  0
    1.8775    5.6870    2.2869 H   0  0  0  0  0  0  0  0  0  0  0  0
   -4.3730   -7.0034   -2.9033 H   0  0  0  0  0  0  0  0  0  0  0  0
  1  2  1  0  0  0  0
  1 13  2  0  0  0  0
  1 14  1  0  0  0  0
  2  3  1  0  0  0  0
  2 16  1  0  0  0  0
  2 17  1  0  0  0  0
  3  4  1  0  0  0  0
  3 18  1  0  0  0  0
  3 19  1  0  0  0  0
  4  5  1  0  0  0  0
  4 20  1  0  0  0  0
  4 21  1  0  0  0  0
  5  6  1  0  0  0  0
  5 22  1  0  0  0  0
  5 23  1  0  0  0  0
  6  7  1  0  0  0  0
  6 24  1  0  0  0  0
  6 25  1  0  0  0  0
  7  8  1  0  0  0  0
  7 26  1  0  0  0  0
  7 27  1  0  0  0  0
  8  9  1  0  0  0  0
  8 28  1  0  0  0  0
  8 29  1  0  0  0  0
  9 10  1  0  0  0  0
  9 30  1  0  0  0  0
  9 31  1  0  0  0  0
 10 11  1  0  0  0  0
 10 32  1  0  0  0  0
 10 33  1  0  0  0  0
 11 12  1  0  0  0  0
 11 34  1  0  0  0  0
 11 35  1  0  0  0  0
 12 15  1  0  0  0  0
 12 36  1  0  0  0  0
 12 37  1  0  0  0  0
 14 38  1  0  0  0  0
M  END
$$$$
DrugBank_2134
 OpenBabel01151909533D

 36 36  0  0  1  0  0  0  0  0999 V2000
    4.1061    1.7146   -2.7841 C   0  0  0  0  0  0  0  0  0  0  0  0
    4.7595    0.3641   -2.7315 C   0  0  0  0  0  0  0  0  0  0  0  0
    3.3555    0.4987   -3.2543 C   0  0  0  0  0  0  0  0  0  0  0  0
   -0.0756   -1.2330    3.9282 C   0  0  0  0  0  0  0  0  0  0  0  0
   -0.0681   -1.1716    2.4082 C   0  0  0  0  0  0  0  0  0  0  0  0
   -1.1729   -0.2547    1.8821 C   0  0  0  0  0  0  0  0  0  0  0  0
   -1.2723   -0.2306    0.3488 C   0  0  0  0  0  0  0  0  0  0  0  0
    1.0246    0.7591   -2.7448 C   0  0  0  0  0  0  0  0  0  0  0  0
   -0.0255    0.3147   -0.3909 C   0  0  1  0  0  0  0  0  0  0  0  0
   -0.1995    0.2708   -1.9384 C   0  0  0  0  0  0  0  0  0  0  0  0
    0.2581    1.6713    0.0856 N   0  0  0  0  0  0  0  0  0  0  0  0
    2.2314   -0.0188   -2.4874 N   0  0  0  0  0  0  0  0  0  0  0  0
   -0.4838   -1.0882   -2.2928 O   0  0  0  0  0  0  0  0  0  0  0  0
   -1.3271    1.0845   -2.2809 O   0  0  0  0  0  0  0  0  0  0  0  0
    3.8208    2.1718   -1.8444 H   0  0  0  0  0  0  0  0  0  0  0  0
    4.4541    2.4139   -3.5346 H   0  0  0  0  0  0  0  0  0  0  0  0
    5.5461    0.1562   -3.4466 H   0  0  0  0  0  0  0  0  0  0  0  0
    4.9118   -0.0829   -1.7565 H   0  0  0  0  0  0  0  0  0  0  0  0
    3.2285    0.3967   -4.3274 H   0  0  0  0  0  0  0  0  0  0  0  0
   -1.0464   -1.5880    4.2879 H   0  0  0  0  0  0  0  0  0  0  0  0
    0.1062   -0.2446    4.3622 H   0  0  0  0  0  0  0  0  0  0  0  0
    0.6948   -1.9178    4.2967 H   0  0  0  0  0  0  0  0  0  0  0  0
    0.9133   -0.8141    2.0794 H   0  0  0  0  0  0  0  0  0  0  0  0
   -0.1999   -2.1831    2.0072 H   0  0  0  0  0  0  0  0  0  0  0  0
   -1.0288    0.7609    2.2688 H   0  0  0  0  0  0  0  0  0  0  0  0
   -2.1381   -0.5988    2.2752 H   0  0  0  0  0  0  0  0  0  0  0  0
   -1.4823   -1.2514    0.0053 H   0  0  0  0  0  0  0  0  0  0  0  0
   -2.1526    0.3691    0.0828 H   0  0  0  0  0  0  0  0  0  0  0  0
    0.8024    0.6892   -3.8168 H   0  0  0  0  0  0  0  0  0  0  0  0
    1.2177    1.8203   -2.5493 H   0  0  0  0  0  0  0  0  0  0  0  0
    0.8210   -0.3278   -0.1241 H   0  0  0  0  0  0  0  0  0  0  0  0
    0.8209    2.2565   -0.4887 H   0  0  0  0  0  0  0  0  0  0  0  0
    0.0551    1.8807    1.0365 H   0  0  0  0  0  0  0  0  0  0  0  0
    2.0642   -0.9896   -2.7479 H   0  0  0  0  0  0  0  0  0  0  0  0
   -0.6739   -1.1216   -3.2451 H   0  0  0  0  0  0  0  0  0  0  0  0
   -1.4896    0.9932   -3.2346 H   0  0  0  0  0  0  0  0  0  0  0  0
  1  2  1  0  0  0  0
  1  3  1  0  0  0  0
  1 15  1  0  0  0  0
  1 16  1  0  0  0  0
  2  3  1  0  0  0  0
  2 17  1  0  0  0  0
  2 18  1  0  0  0  0
  3 12  1  0  0  0  0
  3 19  1  0  0  0  0
  4  5  1  0  0  0  0
  4 20  1  0  0  0  0
  4 21  1  0  0  0  0
  4 22  1  0  0  0  0
  5  6  1  0  0  0  0
  5 23  1  0  0  0  0
  5 24  1  0  0  0  0
  6  7  1  0  0  0  0
  6 25  1  0  0  0  0
  6 26  1  0  0  0  0
  7  9  1  0  0  0  0
  7 27  1  0  0  0  0
  7 28  1  0  0  0  0
  8 10  1  0  0  0  0
  8 12  1  0  0  0  0
  8 29  1  0  0  0  0
  8 30  1  0  0  0  0
  9 10  1  0  0  0  0
  9 11  1  0  0  0  0
  9 31  1  1  0  0  0
 10 13  1  0  0  0  0
 10 14  1  0  0  0  0
 11 32  1  0  0  0  0
 11 33  1  0  0  0  0
 12 34  1  0  0  0  0
 13 35  1  0  0  0  0
 14 36  1  0  0  0  0
M  END
$$$$
DrugBank_2140
 OpenBabel01151909533D

 35 34  0  0  0  0  0  0  0  0999 V2000
   -3.3444   -4.4580    0.0417 C   0  0  0  0  0  0  0  0  0  0  0  0
   -2.0539   -3.6542    0.0836 C   0  0  0  0  0  0  0  0  0  0  0  0
   -2.2471   -2.1724   -0.2492 C   0  0  0  0  0  0  0  0  0  0  0  0
   -0.9483   -1.3649   -0.1790 C   0  0  0  0  0  0  0  0  0  0  0  0
   -1.1271    0.1055   -0.5707 C   0  0  0  0  0  0  0  0  0  0  0  0
    0.1645    0.9208   -0.4763 C   0  0  0  0  0  0  0  0  0  0  0  0
   -0.0651    2.3733   -0.9000 C   0  0  0  0  0  0  0  0  0  0  0  0
    2.7624    6.9653   -1.3393 C   0  0  0  0  0  0  0  0  0  0  0  0
    1.2117    3.1928   -0.7680 C   0  0  0  0  0  0  0  0  0  0  0  0
    2.6214    5.4952   -0.9904 C   0  0  0  0  0  0  0  0  0  0  0  0
    0.0552    5.5663   -0.2431 O   0  0  0  0  0  0  0  0  0  0  0  0
    2.4216    7.1683   -2.7048 O   0  0  0  0  0  0  0  0  0  0  0  0
    0.9297    4.9101   -1.2972 S   0  0  2  0  0  0  0  0  0  0  0  0
   -3.8288   -4.3727   -0.9362 H   0  0  0  0  0  0  0  0  0  0  0  0
   -4.0498   -4.1245    0.8084 H   0  0  0  0  0  0  0  0  0  0  0  0
   -3.1333   -5.5167    0.2238 H   0  0  0  0  0  0  0  0  0  0  0  0
   -1.5917   -3.7578    1.0721 H   0  0  0  0  0  0  0  0  0  0  0  0
   -1.3517   -4.0841   -0.6407 H   0  0  0  0  0  0  0  0  0  0  0  0
   -2.6616   -2.1000   -1.2622 H   0  0  0  0  0  0  0  0  0  0  0  0
   -2.9935   -1.7475    0.4315 H   0  0  0  0  0  0  0  0  0  0  0  0
   -0.5245   -1.4179    0.8303 H   0  0  0  0  0  0  0  0  0  0  0  0
   -0.2111   -1.8115   -0.8574 H   0  0  0  0  0  0  0  0  0  0  0  0
   -1.4988    0.1409   -1.6024 H   0  0  0  0  0  0  0  0  0  0  0  0
   -1.9005    0.5623    0.0586 H   0  0  0  0  0  0  0  0  0  0  0  0
    0.5449    0.9039    0.5511 H   0  0  0  0  0  0  0  0  0  0  0  0
    0.9324    0.4692   -1.1159 H   0  0  0  0  0  0  0  0  0  0  0  0
   -0.4206    2.4018   -1.9378 H   0  0  0  0  0  0  0  0  0  0  0  0
   -0.8578    2.8143   -0.2827 H   0  0  0  0  0  0  0  0  0  0  0  0
    2.0700    7.5571   -0.7322 H   0  0  0  0  0  0  0  0  0  0  0  0
    3.7802    7.3317   -1.1700 H   0  0  0  0  0  0  0  0  0  0  0  0
    2.0085    2.7831   -1.3965 H   0  0  0  0  0  0  0  0  0  0  0  0
    1.5614    3.2169    0.2688 H   0  0  0  0  0  0  0  0  0  0  0  0
    3.2839    4.8881   -1.6137 H   0  0  0  0  0  0  0  0  0  0  0  0
    2.8441    5.3096    0.0647 H   0  0  0  0  0  0  0  0  0  0  0  0
    2.5261    8.1172   -2.8807 H   0  0  0  0  0  0  0  0  0  0  0  0
  1  2  1  0  0  0  0
  1 14  1  0  0  0  0
  1 15  1  0  0  0  0
  1 16  1  0  0  0  0
  2  3  1  0  0  0  0
  2 17  1  0  0  0  0
  2 18  1  0  0  0  0
  3  4  1  0  0  0  0
  3 19  1  0  0  0  0
  3 20  1  0  0  0  0
  4  5  1  0  0  0  0
  4 21  1  0  0  0  0
  4 22  1  0  0  0  0
  5  6  1  0  0  0  0
  5 23  1  0  0  0  0
  5 24  1  0  0  0  0
  6  7  1  0  0  0  0
  6 25  1  0  0  0  0
  6 26  1  0  0  0  0
  7  9  1  0  0  0  0
  7 27  1  0  0  0  0
  7 28  1  0  0  0  0
  8 10  1  0  0  0  0
  8 12  1  0  0  0  0
  8 29  1  0  0  0  0
  8 30  1  0  0  0  0
  9 13  1  0  0  0  0
  9 31  1  0  0  0  0
  9 32  1  0  0  0  0
 10 13  1  0  0  0  0
 10 33  1  0  0  0  0
 10 34  1  0  0  0  0
 12 35  1  0  0  0  0
 13 11  2  1  0  0  0
M  END
$$$$
DrugBank_2141
 OpenBabel01151909533D

 34 36  0  0  1  0  0  0  0  0999 V2000
   -4.0754    3.1767   -0.5063 C   0  0  0  0  0  0  0  0  0  0  0  0
   -4.3696    0.5814   -0.0433 C   0  0  0  0  0  0  0  0  0  0  0  0
   -3.2384    1.0827   -0.6638 C   0  0  0  0  0  0  0  0  0  0  0  0
   -5.3493    1.4671    0.3205 C   0  0  0  0  0  0  0  0  0  0  0  0
   -4.2585   -0.9023    0.0395 C   0  0  1  0  0  0  0  0  0  0  0  0
    1.0771   -0.2902   -1.8545 C   0  0  2  0  0  0  0  0  0  0  0  0
    0.0348    0.4140   -1.0152 C   0  0  2  0  0  0  0  0  0  0  0  0
    0.3102   -1.5176   -2.3127 C   0  0  2  0  0  0  0  0  0  0  0  0
   -1.2372    0.1506   -1.8058 C   0  0  2  0  0  0  0  0  0  0  0  0
    0.8608   -2.1300   -3.5879 C   0  0  0  0  0  0  0  0  0  0  0  0
   -3.0561    2.3897   -0.9142 N   0  0  0  0  0  0  0  0  0  0  0  0
   -5.2231    2.7921    0.1022 N   0  0  0  0  0  0  0  0  0  0  0  0
   -2.9748   -1.2379   -0.6443 N   0  0  0  0  0  0  0  0  0  0  0  0
   -2.3874    0.0101   -0.9585 N   0  0  0  0  0  0  0  0  0  0  0  0
   -6.5332    0.9796    0.9151 N   0  0  0  0  0  0  0  0  0  0  0  0
   -1.0387   -1.0743   -2.5303 O   0  0  0  0  0  0  0  0  0  0  0  0
    2.2143   -0.6521   -1.0952 O   0  0  0  0  0  0  0  0  0  0  0  0
    0.3140    1.7990   -0.9216 O   0  0  0  0  0  0  0  0  0  0  0  0
    0.0848   -3.2695   -3.9211 O   0  0  0  0  0  0  0  0  0  0  0  0
   -4.0943   -1.5858    2.0367 I   0  0  0  0  0  0  0  0  0  0  0  0
   -3.9623    4.2390   -0.6878 H   0  0  0  0  0  0  0  0  0  0  0  0
   -5.0815   -1.3828   -0.4997 H   0  0  0  0  0  0  0  0  0  0  0  0
    1.3991    0.3396   -2.6933 H   0  0  0  0  0  0  0  0  0  0  0  0
    0.0040    0.0014    0.0012 H   0  0  0  0  0  0  0  0  0  0  0  0
    0.2925   -2.2849   -1.5279 H   0  0  0  0  0  0  0  0  0  0  0  0
   -1.4305    0.9387   -2.5421 H   0  0  0  0  0  0  0  0  0  0  0  0
    1.8994   -2.4372   -3.4436 H   0  0  0  0  0  0  0  0  0  0  0  0
    0.8068   -1.4108   -4.4086 H   0  0  0  0  0  0  0  0  0  0  0  0
   -2.3669   -1.7145    0.0214 H   0  0  0  0  0  0  0  0  0  0  0  0
   -7.2266    1.6299    1.2229 H   0  0  0  0  0  0  0  0  0  0  0  0
   -6.6159    0.0016    1.1032 H   0  0  0  0  0  0  0  0  0  0  0  0
    2.5909    0.1688   -0.7340 H   0  0  0  0  0  0  0  0  0  0  0  0
   -0.3856    2.1940   -0.3740 H   0  0  0  0  0  0  0  0  0  0  0  0
    0.4598   -3.6383   -4.7382 H   0  0  0  0  0  0  0  0  0  0  0  0
  1 11  2  0  0  0  0
  1 12  1  0  0  0  0
  1 21  1  0  0  0  0
  2  3  2  0  0  0  0
  2  4  1  0  0  0  0
  2  5  1  0  0  0  0
  3 11  1  0  0  0  0
  3 14  1  0  0  0  0
  4 12  2  0  0  0  0
  4 15  1  0  0  0  0
  5 13  1  0  0  0  0
  5 20  1  0  0  0  0
  5 22  1  6  0  0  0
  6  7  1  1  0  0  0
  6 17  1  0  0  0  0
  6 23  1  0  0  0  0
  7  9  1  6  0  0  0
  7 18  1  0  0  0  0
  7 24  1  0  0  0  0
  8  6  1  1  0  0  0
  8 10  1  0  0  0  0
  8 16  1  0  0  0  0
  8 25  1  0  0  0  0
  9 14  1  0  0  0  0
  9 16  1  0  0  0  0
  9 26  1  6  0  0  0
 10 19  1  0  0  0  0
 10 27  1  0  0  0  0
 10 28  1  0  0  0  0
 13 14  1  0  0  0  0
 13 29  1  0  0  0  0
 15 30  1  0  0  0  0
 15 31  1  0  0  0  0
 17 32  1  0  0  0  0
 18 33  1  0  0  0  0
 19 34  1  0  0  0  0
M  END
$$$$
DrugBank_2148
 OpenBabel01151909533D

 12 11  0  0  0  0  0  0  0  0999 V2000
   -0.5667   -1.9546   -0.0198 O   0  0  0  0  0  0  0  0  0  0  0  0
    1.7077    0.7192   -1.6950 O   0  0  0  0  0  0  0  0  0  0  0  0
   -2.4667   -0.1621    0.3151 O   0  0  0  0  0  0  0  0  0  0  0  0
   -1.2422   -0.2486   -1.9059 O   0  0  0  0  0  0  0  0  0  0  0  0
    2.2060   -0.2595    0.6064 O   0  0  0  0  0  0  0  0  0  0  0  0
   -0.0572    0.6171    0.1559 O   0  0  0  0  0  0  0  0  0  0  0  0
   -1.0428   -0.5672   -0.3338 P   0  0  0  0  0  0  0  0  0  0  0  0
    1.4947    0.9606   -0.2165 P   0  0  2  0  0  0  0  0  0  0  0  0
    2.0296    2.6803    0.5553 S   0  0  0  0  0  0  0  0  0  0  0  0
   -3.2615   -0.6876    0.0820 H   0  0  0  0  0  0  0  0  0  0  0  0
   -0.4703   -0.3216   -2.5067 H   0  0  0  0  0  0  0  0  0  0  0  0
    1.8972   -1.1756    0.4403 H   0  0  0  0  0  0  0  0  0  0  0  0
  1  7  2  0  0  0  0
  3  7  1  0  0  0  0
  3 10  1  0  0  0  0
  4  7  1  0  0  0  0
  4 11  1  0  0  0  0
  5  8  1  0  0  0  0
  5 12  1  0  0  0  0
  6  7  1  0  0  0  0
  6  8  1  0  0  0  0
  8  2  2  6  0  0  0
  8  9  1  0  0  0  0
M  END
$$$$
DrugBank_2151
 OpenBabel01151909533D

 98102  0  0  1  0  0  0  0  0999 V2000
    5.7724   -1.6361   -1.3228 C   0  0  0  0  0  0  0  0  0  0  0  0
    6.6803   -1.0411   -0.5406 C   0  0  0  0  0  0  0  0  0  0  0  0
    0.9135   -7.3793   -2.3733 C   0  0  0  0  0  0  0  0  0  0  0  0
    1.7031   -7.0726   -0.0660 C   0  0  0  0  0  0  0  0  0  0  0  0
   -5.2701   -3.3293   -0.4834 C   0  0  0  0  0  0  0  0  0  0  0  0
    3.6644   -0.3746   -1.7998 C   0  0  0  0  0  0  0  0  0  0  0  0
    2.8735   -1.4180   -0.9944 C   0  0  0  0  0  0  0  0  0  0  0  0
    3.4395   -5.6561   -2.2118 C   0  0  0  0  0  0  0  0  0  0  0  0
    4.1166   -4.5621   -3.0318 C   0  0  0  0  0  0  0  0  0  0  0  0
    4.6319   -2.1151   -3.3086 C   0  0  0  0  0  0  0  0  0  0  0  0
   -0.2870   -5.8382   -0.9362 C   0  0  0  0  0  0  0  0  0  0  0  0
    0.6068   -3.4874   -0.6060 C   0  0  0  0  0  0  0  0  0  0  0  0
    4.9624   -0.9424   -2.3885 C   0  0  2  0  0  0  0  0  0  0  0  0
    5.4082   -3.1043   -1.2866 C   0  0  1  0  0  0  0  0  0  0  0  0
    2.0236   -5.2130   -1.7900 C   0  0  1  0  0  0  0  0  0  0  0  0
    2.8195   -2.7964   -1.6990 C   0  0  1  0  0  0  0  0  0  0  0  0
   -0.2902   -4.5952   -0.0501 C   0  0  1  0  0  0  0  0  0  0  0  0
   -4.6431   -5.3143    1.9028 C   0  0  1  0  0  0  0  0  0  0  0  0
   -4.3159   -4.5698    3.2041 C   0  0  2  0  0  0  0  0  0  0  0  0
   -3.8225   -4.7411    0.7459 C   0  0  2  0  0  0  0  0  0  0  0  0
   -2.8014   -4.5238    3.4454 C   0  0  2  0  0  0  0  0  0  0  0  0
   -2.3349   -4.6812    1.1156 C   0  0  2  0  0  0  0  0  0  0  0  0
    1.1220   -6.3691   -1.2665 C   0  0  0  0  0  0  0  0  0  0  0  0
    4.2204   -3.2148   -2.2957 C   0  0  2  0  0  0  0  0  0  0  0  0
    2.0719   -3.9330   -0.8806 C   0  0  1  0  0  0  0  0  0  0  0  0
    2.7463   -4.2039    0.4852 C   0  0  0  0  0  0  0  0  0  0  0  0
   -7.5215   -1.8883    0.9599 C   0  0  0  0  0  0  0  0  0  0  0  0
   -7.3711   -0.0793   -0.7639 C   0  0  0  0  0  0  0  0  0  0  0  0
   -5.6111   -1.8711   -0.7058 C   0  0  0  0  0  0  0  0  0  0  0  0
   -2.4506   -3.6854    4.6706 C   0  0  0  0  0  0  0  0  0  0  0  0
   -7.0968   -1.5559   -0.4728 C   0  0  0  0  0  0  0  0  0  0  0  0
    1.1770   -8.5700   -2.2955 O   0  0  0  0  0  0  0  0  0  0  0  0
    1.1810   -7.1248    1.0377 O   0  0  0  0  0  0  0  0  0  0  0  0
   -5.7823   -4.2703   -1.0739 O   0  0  0  0  0  0  0  0  0  0  0  0
   -6.4433   -7.7039    1.2276 O   0  0  0  0  0  0  0  0  0  0  0  0
   -4.4121   -7.6672   -0.2555 O   0  0  0  0  0  0  0  0  0  0  0  0
   -6.6876   -3.4689    4.8167 O   0  0  0  0  0  0  0  0  0  0  0  0
   -7.3425   -5.5484    3.5622 O   0  0  0  0  0  0  0  0  0  0  0  0
   -2.1447   -3.9331    2.3178 O   0  0  0  0  0  0  0  0  0  0  0  0
    0.3933   -6.7830   -3.4738 O   0  0  0  0  0  0  0  0  0  0  0  0
    2.8934   -7.6426   -0.3749 O   0  0  0  0  0  0  0  0  0  0  0  0
    6.5269   -3.8670   -1.7275 O   0  0  0  0  0  0  0  0  0  0  0  0
   -0.7894   -2.8831    6.0154 O   0  0  0  0  0  0  0  0  0  0  0  0
   -4.5297   -9.2267    1.6879 O   0  0  0  0  0  0  0  0  0  0  0  0
   -6.8347   -5.6519    6.0023 O   0  0  0  0  0  0  0  0  0  0  0  0
   -4.2780   -3.4199    0.4538 O   0  0  0  0  0  0  0  0  0  0  0  0
   -1.6211   -4.0856    0.0357 O   0  0  0  0  0  0  0  0  0  0  0  0
   -4.3286   -6.6974    2.0612 O   0  0  0  0  0  0  0  0  0  0  0  0
   -4.9672   -5.1948    4.3035 O   0  0  0  0  0  0  0  0  0  0  0  0
   -1.0446   -3.6969    4.8371 O   0  0  0  0  0  0  0  0  0  0  0  0
   -5.0046   -7.7967    1.0628 S   0  0  0  0  0  0  0  0  0  0  0  0
   -6.5485   -4.8948    4.5860 S   0  0  0  0  0  0  0  0  0  0  0  0
    7.2188   -1.6082    0.2075 H   0  0  0  0  0  0  0  0  0  0  0  0
    6.8891    0.0157   -0.6447 H   0  0  0  0  0  0  0  0  0  0  0  0
    3.0338   -0.0010   -2.6166 H   0  0  0  0  0  0  0  0  0  0  0  0
    3.8833    0.4850   -1.1548 H   0  0  0  0  0  0  0  0  0  0  0  0
    3.3317   -1.5068   -0.0044 H   0  0  0  0  0  0  0  0  0  0  0  0
    1.8625   -1.0292   -0.8307 H   0  0  0  0  0  0  0  0  0  0  0  0
    3.3861   -6.5570   -2.8338 H   0  0  0  0  0  0  0  0  0  0  0  0
    4.0612   -5.9158   -1.3503 H   0  0  0  0  0  0  0  0  0  0  0  0
    5.0976   -4.9138   -3.3706 H   0  0  0  0  0  0  0  0  0  0  0  0
    3.5326   -4.4193   -3.9518 H   0  0  0  0  0  0  0  0  0  0  0  0
    3.8373   -1.8753   -4.0245 H   0  0  0  0  0  0  0  0  0  0  0  0
    5.5148   -2.4173   -3.8884 H   0  0  0  0  0  0  0  0  0  0  0  0
   -0.8962   -6.6184   -0.4576 H   0  0  0  0  0  0  0  0  0  0  0  0
   -0.8262   -5.6037   -1.8663 H   0  0  0  0  0  0  0  0  0  0  0  0
    0.1535   -3.1037   -1.5307 H   0  0  0  0  0  0  0  0  0  0  0  0
    0.5854   -2.6435    0.0952 H   0  0  0  0  0  0  0  0  0  0  0  0
    5.5271   -0.1686   -2.9179 H   0  0  0  0  0  0  0  0  0  0  0  0
    5.1561   -3.4098   -0.2747 H   0  0  0  0  0  0  0  0  0  0  0  0
    1.5370   -4.8867   -2.7253 H   0  0  0  0  0  0  0  0  0  0  0  0
    2.1793   -2.6260   -2.5811 H   0  0  0  0  0  0  0  0  0  0  0  0
    0.0093   -4.8600    0.9682 H   0  0  0  0  0  0  0  0  0  0  0  0
   -5.7188   -5.2407    1.7056 H   0  0  0  0  0  0  0  0  0  0  0  0
   -4.6998   -3.5445    3.1238 H   0  0  0  0  0  0  0  0  0  0  0  0
   -3.9478   -5.3400   -0.1632 H   0  0  0  0  0  0  0  0  0  0  0  0
   -2.4047   -5.5329    3.6103 H   0  0  0  0  0  0  0  0  0  0  0  0
   -1.9356   -5.6938    1.2546 H   0  0  0  0  0  0  0  0  0  0  0  0
    3.7685   -4.5157    0.3145 H   0  0  0  0  0  0  0  0  0  0  0  0
    2.1994   -4.9858    0.9959 H   0  0  0  0  0  0  0  0  0  0  0  0
    2.7279   -3.2937    1.0706 H   0  0  0  0  0  0  0  0  0  0  0  0
   -6.9388   -1.3161    1.6900 H   0  0  0  0  0  0  0  0  0  0  0  0
   -8.5797   -1.6518    1.1140 H   0  0  0  0  0  0  0  0  0  0  0  0
   -7.3864   -2.9520    1.1793 H   0  0  0  0  0  0  0  0  0  0  0  0
   -6.7849    0.5716   -0.1062 H   0  0  0  0  0  0  0  0  0  0  0  0
   -7.1157    0.1669   -1.8000 H   0  0  0  0  0  0  0  0  0  0  0  0
   -8.4306    0.1561   -0.6173 H   0  0  0  0  0  0  0  0  0  0  0  0
   -4.9951   -1.2568   -0.0380 H   0  0  0  0  0  0  0  0  0  0  0  0
   -5.3348   -1.6371   -1.7407 H   0  0  0  0  0  0  0  0  0  0  0  0
   -2.9220   -4.1080    5.5579 H   0  0  0  0  0  0  0  0  0  0  0  0
   -2.7883   -2.6588    4.5283 H   0  0  0  0  0  0  0  0  0  0  0  0
   -7.7093   -2.1540   -1.1591 H   0  0  0  0  0  0  0  0  0  0  0  0
    0.2522   -7.4221   -4.2046 H   0  0  0  0  0  0  0  0  0  0  0  0
    3.2892   -8.1044    0.3948 H   0  0  0  0  0  0  0  0  0  0  0  0
    6.2600   -4.7995   -1.6920 H   0  0  0  0  0  0  0  0  0  0  0  0
    0.1777   -2.9840    5.9991 H   0  0  0  0  0  0  0  0  0  0  0  0
   -3.5570   -9.3452    1.7930 H   0  0  0  0  0  0  0  0  0  0  0  0
   -6.3487   -5.2967    6.7826 H   0  0  0  0  0  0  0  0  0  0  0  0
  1  2  2  0  0  0  0
  1 13  1  0  0  0  0
  1 14  1  0  0  0  0
  2 53  1  0  0  0  0
  2 54  1  0  0  0  0
  3 23  1  0  0  0  0
  3 32  2  0  0  0  0
  3 40  1  0  0  0  0
  4 23  1  0  0  0  0
  4 33  2  0  0  0  0
  4 41  1  0  0  0  0
  5 29  1  0  0  0  0
  5 34  2  0  0  0  0
  5 46  1  0  0  0  0
  6  7  1  0  0  0  0
  6 13  1  0  0  0  0
  6 55  1  0  0  0  0
  6 56  1  0  0  0  0
  7 16  1  0  0  0  0
  7 57  1  0  0  0  0
  7 58  1  0  0  0  0
  8  9  1  0  0  0  0
  8 15  1  0  0  0  0
  8 59  1  0  0  0  0
  8 60  1  0  0  0  0
  9 61  1  0  0  0  0
  9 62  1  0  0  0  0
 10 13  1  0  0  0  0
 10 24  1  0  0  0  0
 10 63  1  0  0  0  0
 10 64  1  0  0  0  0
 11 17  1  0  0  0  0
 11 23  1  0  0  0  0
 11 65  1  0  0  0  0
 11 66  1  0  0  0  0
 12 17  1  0  0  0  0
 12 25  1  0  0  0  0
 12 67  1  0  0  0  0
 12 68  1  0  0  0  0
 13 69  1  6  0  0  0
 14 24  1  6  0  0  0
 14 42  1  0  0  0  0
 14 70  1  0  0  0  0
 15 23  1  0  0  0  0
 15 25  1  1  0  0  0
 15 71  1  0  0  0  0
 16 24  1  6  0  0  0
 16 72  1  0  0  0  0
 17 47  1  0  0  0  0
 17 73  1  1  0  0  0
 18 19  1  1  0  0  0
 18 48  1  0  0  0  0
 18 74  1  0  0  0  0
 19 21  1  1  0  0  0
 19 49  1  0  0  0  0
 19 75  1  0  0  0  0
 20 18  1  1  0  0  0
 20 46  1  0  0  0  0
 20 76  1  0  0  0  0
 21 30  1  0  0  0  0
 21 39  1  0  0  0  0
 21 77  1  1  0  0  0
 22 20  1  6  0  0  0
 22 39  1  0  0  0  0
 22 47  1  0  0  0  0
 22 78  1  0  0  0  0
 24  9  1  6  0  0  0
 25 16  1  6  0  0  0
 25 26  1  0  0  0  0
 26 79  1  0  0  0  0
 26 80  1  0  0  0  0
 26 81  1  0  0  0  0
 27 31  1  0  0  0  0
 27 82  1  0  0  0  0
 27 83  1  0  0  0  0
 27 84  1  0  0  0  0
 28 31  1  0  0  0  0
 28 85  1  0  0  0  0
 28 86  1  0  0  0  0
 28 87  1  0  0  0  0
 29 31  1  0  0  0  0
 29 88  1  0  0  0  0
 29 89  1  0  0  0  0
 30 50  1  0  0  0  0
 30 90  1  0  0  0  0
 30 91  1  0  0  0  0
 31 92  1  0  0  0  0
 35 51  2  0  0  0  0
 36 51  2  0  0  0  0
 37 52  2  0  0  0  0
 38 52  2  0  0  0  0
 40 93  1  0  0  0  0
 41 94  1  0  0  0  0
 42 95  1  0  0  0  0
 43 50  1  0  0  0  0
 43 96  1  0  0  0  0
 44 51  1  0  0  0  0
 44 97  1  0  0  0  0
 45 52  1  0  0  0  0
 45 98  1  0  0  0  0
 48 51  1  0  0  0  0
 49 52  1  0  0  0  0
M  END
$$$$
DrugBank_4829
 OpenBabel01151909533D

 49 50  0  0  1  0  0  0  0  0999 V2000
    2.7957   -1.4744    1.2460 C   0  0  0  0  0  0  0  0  0  0  0  0
    1.9871   -0.7291    0.3887 C   0  0  0  0  0  0  0  0  0  0  0  0
    0.0828   -1.1798    1.8000 C   0  0  0  0  0  0  0  0  0  0  0  0
    2.2551   -2.0688    2.3949 C   0  0  0  0  0  0  0  0  0  0  0  0
    0.8859   -1.9325    2.6697 C   0  0  0  0  0  0  0  0  0  0  0  0
    0.6314   -0.5798    0.6668 C   0  0  0  0  0  0  0  0  0  0  0  0
    2.8810   -1.6701    5.4405 C   0  0  0  0  0  0  0  0  0  0  0  0
    0.6911   -4.2130    5.7230 C   0  0  0  0  0  0  0  0  0  0  0  0
    3.1324   -2.8946    3.2972 C   0  0  0  0  0  0  0  0  0  0  0  0
    0.2543   -2.5727    3.8773 C   0  0  0  0  0  0  0  0  0  0  0  0
    2.5903   -2.9787    4.7214 C   0  0  2  0  0  0  0  0  0  0  0  0
   -0.7983   -4.6892    8.1193 C   0  0  0  0  0  0  0  0  0  0  0  0
   -2.7699   -5.0450    6.6042 C   0  0  0  0  0  0  0  0  0  0  0  0
   -0.7787   -6.5673    6.4439 C   0  0  0  0  0  0  0  0  0  0  0  0
    4.6253   -0.4519    6.7274 C   0  0  0  0  0  0  0  0  0  0  0  0
   -1.2513   -5.1432    6.7324 C   0  0  0  0  0  0  0  0  0  0  0  0
    1.1691   -3.3276    4.7456 N   0  0  0  0  0  0  0  0  0  0  0  0
   -0.1980    0.1826   -0.2101 N   0  0  0  0  0  0  0  0  0  0  0  0
    4.1424   -1.6043    6.0009 N   0  0  0  0  0  0  0  0  0  0  0  0
    2.0223   -0.7966    5.4761 O   0  0  0  0  0  0  0  0  0  0  0  0
    1.4074   -4.8697    6.4763 O   0  0  0  0  0  0  0  0  0  0  0  0
   -1.8175   -1.8252   -0.4867 O   0  0  0  0  0  0  0  0  0  0  0  0
   -2.1627    0.2375   -1.8805 O   0  0  0  0  0  0  0  0  0  0  0  0
   -0.3029   -1.3226   -2.4004 O   0  0  0  0  0  0  0  0  0  0  0  0
   -0.6783   -4.2660    5.7561 O   0  0  0  0  0  0  0  0  0  0  0  0
   -1.2698   -0.7105   -1.2385 S   0  0  0  0  0  0  0  0  0  0  0  0
    3.8517   -1.5886    1.0143 H   0  0  0  0  0  0  0  0  0  0  0  0
    2.4250   -0.2714   -0.4945 H   0  0  0  0  0  0  0  0  0  0  0  0
   -0.9786   -1.0662    2.0115 H   0  0  0  0  0  0  0  0  0  0  0  0
    3.1941   -3.9031    2.8692 H   0  0  0  0  0  0  0  0  0  0  0  0
    4.1458   -2.4750    3.3167 H   0  0  0  0  0  0  0  0  0  0  0  0
   -0.1988   -1.7947    4.5040 H   0  0  0  0  0  0  0  0  0  0  0  0
   -0.5434   -3.2472    3.5452 H   0  0  0  0  0  0  0  0  0  0  0  0
    3.1854   -3.7395    5.2516 H   0  0  0  0  0  0  0  0  0  0  0  0
    0.2912   -4.7582    8.2154 H   0  0  0  0  0  0  0  0  0  0  0  0
   -1.1009   -3.6572    8.3248 H   0  0  0  0  0  0  0  0  0  0  0  0
   -1.2188   -5.3348    8.8988 H   0  0  0  0  0  0  0  0  0  0  0  0
   -3.0994   -5.3697    5.6106 H   0  0  0  0  0  0  0  0  0  0  0  0
   -3.1048   -4.0075    6.7167 H   0  0  0  0  0  0  0  0  0  0  0  0
   -3.2792   -5.6571    7.3556 H   0  0  0  0  0  0  0  0  0  0  0  0
   -1.1035   -6.8932    5.4491 H   0  0  0  0  0  0  0  0  0  0  0  0
    0.3119   -6.6484    6.4951 H   0  0  0  0  0  0  0  0  0  0  0  0
   -1.2145   -7.2748    7.1586 H   0  0  0  0  0  0  0  0  0  0  0  0
    5.1178    0.2441    6.0434 H   0  0  0  0  0  0  0  0  0  0  0  0
    5.3429   -0.7607    7.4923 H   0  0  0  0  0  0  0  0  0  0  0  0
    3.7933    0.0634    7.2150 H   0  0  0  0  0  0  0  0  0  0  0  0
    0.3015    0.9471   -0.6959 H   0  0  0  0  0  0  0  0  0  0  0  0
    4.7598   -2.4040    5.8973 H   0  0  0  0  0  0  0  0  0  0  0  0
    0.2515   -0.6619   -2.8785 H   0  0  0  0  0  0  0  0  0  0  0  0
  1  2  2  0  0  0  0
  1  4  1  0  0  0  0
  1 27  1  0  0  0  0
  2  6  1  0  0  0  0
  2 28  1  0  0  0  0
  3  5  1  0  0  0  0
  3  6  2  0  0  0  0
  3 29  1  0  0  0  0
  4  5  2  0  0  0  0
  4  9  1  0  0  0  0
  5 10  1  0  0  0  0
  6 18  1  0  0  0  0
  7 11  1  0  0  0  0
  7 19  1  0  0  0  0
  7 20  2  0  0  0  0
  8 17  1  0  0  0  0
  8 21  2  0  0  0  0
  8 25  1  0  0  0  0
  9 11  1  0  0  0  0
  9 30  1  0  0  0  0
  9 31  1  0  0  0  0
 10 17  1  0  0  0  0
 10 32  1  0  0  0  0
 10 33  1  0  0  0  0
 11 17  1  0  0  0  0
 11 34  1  1  0  0  0
 12 16  1  0  0  0  0
 12 35  1  0  0  0  0
 12 36  1  0  0  0  0
 12 37  1  0  0  0  0
 13 16  1  0  0  0  0
 13 38  1  0  0  0  0
 13 39  1  0  0  0  0
 13 40  1  0  0  0  0
 14 16  1  0  0  0  0
 14 41  1  0  0  0  0
 14 42  1  0  0  0  0
 14 43  1  0  0  0  0
 15 19  1  0  0  0  0
 15 44  1  0  0  0  0
 15 45  1  0  0  0  0
 15 46  1  0  0  0  0
 16 25  1  0  0  0  0
 18 26  1  0  0  0  0
 18 47  1  0  0  0  0
 19 48  1  0  0  0  0
 22 26  2  0  0  0  0
 23 26  2  0  0  0  0
 24 26  1  0  0  0  0
 24 49  1  0  0  0  0
M  END
$$$$
DrugBank_4835
 OpenBabel01151909533D

 36 35  0  0  0  0  0  0  0  0999 V2000
   -1.9882    2.2374   -5.5731 C   0  0  0  0  0  0  0  0  0  0  0  0
   -2.2467    1.3771   -4.3453 C   0  0  0  0  0  0  0  0  0  0  0  0
   -0.9983    1.2673   -3.4694 C   0  0  0  0  0  0  0  0  0  0  0  0
   -1.2097    0.4204   -2.2114 C   0  0  0  0  0  0  0  0  0  0  0  0
    0.0592    0.2495   -1.3730 C   0  0  0  0  0  0  0  0  0  0  0  0
   -0.2160   -0.5776   -0.1137 C   0  0  0  0  0  0  0  0  0  0  0  0
    1.0612   -0.7809    0.7046 C   0  0  0  0  0  0  0  0  0  0  0  0
    0.8617   -1.6648    1.9402 C   0  0  0  0  0  0  0  0  0  0  0  0
    2.1563   -1.9246    2.7164 C   0  0  0  0  0  0  0  0  0  0  0  0
    1.9329   -2.7427    3.9818 C   0  0  0  0  0  0  0  0  0  0  0  0
    3.9541   -1.7097    5.2978 O   0  0  0  0  0  0  0  0  0  0  0  0
    4.2271   -3.9880    4.2241 O   0  0  0  0  0  0  0  0  0  0  0  0
    2.7287   -3.6971    6.2136 O   0  0  0  0  0  0  0  0  0  0  0  0
    3.4124   -2.9990    4.9073 S   0  0  0  0  0  0  0  0  0  0  0  0
   -1.1662    1.8307   -6.1706 H   0  0  0  0  0  0  0  0  0  0  0  0
   -2.8788    2.2949   -6.2070 H   0  0  0  0  0  0  0  0  0  0  0  0
   -1.7192    3.2548   -5.2728 H   0  0  0  0  0  0  0  0  0  0  0  0
   -3.0732    1.8174   -3.7777 H   0  0  0  0  0  0  0  0  0  0  0  0
   -2.5657    0.3792   -4.6669 H   0  0  0  0  0  0  0  0  0  0  0  0
   -0.1897    0.8125   -4.0552 H   0  0  0  0  0  0  0  0  0  0  0  0
   -0.6556    2.2694   -3.1847 H   0  0  0  0  0  0  0  0  0  0  0  0
   -2.0026    0.8650   -1.5978 H   0  0  0  0  0  0  0  0  0  0  0  0
   -1.5687   -0.5685   -2.5224 H   0  0  0  0  0  0  0  0  0  0  0  0
    0.8330   -0.2432   -1.9740 H   0  0  0  0  0  0  0  0  0  0  0  0
    0.4501    1.2297   -1.0781 H   0  0  0  0  0  0  0  0  0  0  0  0
   -0.9732   -0.0658    0.4905 H   0  0  0  0  0  0  0  0  0  0  0  0
   -0.6294   -1.5527   -0.3979 H   0  0  0  0  0  0  0  0  0  0  0  0
    1.4653    0.1920    1.0099 H   0  0  0  0  0  0  0  0  0  0  0  0
    1.8209   -1.2521    0.0685 H   0  0  0  0  0  0  0  0  0  0  0  0
    0.1177   -1.2066    2.6031 H   0  0  0  0  0  0  0  0  0  0  0  0
    0.4388   -2.6175    1.6021 H   0  0  0  0  0  0  0  0  0  0  0  0
    2.8821   -2.4288    2.0673 H   0  0  0  0  0  0  0  0  0  0  0  0
    2.5985   -0.9671    3.0128 H   0  0  0  0  0  0  0  0  0  0  0  0
    1.2475   -2.2136    4.6517 H   0  0  0  0  0  0  0  0  0  0  0  0
    1.5085   -3.7262    3.7604 H   0  0  0  0  0  0  0  0  0  0  0  0
    2.1502   -3.1084    6.7532 H   0  0  0  0  0  0  0  0  0  0  0  0
  1  2  1  0  0  0  0
  1 15  1  0  0  0  0
  1 16  1  0  0  0  0
  1 17  1  0  0  0  0
  2  3  1  0  0  0  0
  2 18  1  0  0  0  0
  2 19  1  0  0  0  0
  3  4  1  0  0  0  0
  3 20  1  0  0  0  0
  3 21  1  0  0  0  0
  4  5  1  0  0  0  0
  4 22  1  0  0  0  0
  4 23  1  0  0  0  0
  5  6  1  0  0  0  0
  5 24  1  0  0  0  0
  5 25  1  0  0  0  0
  6  7  1  0  0  0  0
  6 26  1  0  0  0  0
  6 27  1  0  0  0  0
  7  8  1  0  0  0  0
  7 28  1  0  0  0  0
  7 29  1  0  0  0  0
  8  9  1  0  0  0  0
  8 30  1  0  0  0  0
  8 31  1  0  0  0  0
  9 10  1  0  0  0  0
  9 32  1  0  0  0  0
  9 33  1  0  0  0  0
 10 14  1  0  0  0  0
 10 34  1  0  0  0  0
 10 35  1  0  0  0  0
 11 14  2  0  0  0  0
 12 14  2  0  0  0  0
 13 14  1  0  0  0  0
 13 36  1  0  0  0  0
M  END
$$$$
DrugBank_2178
 OpenBabel01151909533D

 51 50  0  0  0  0  0  0  0  0999 V2000
    0.4246   -2.5084   -6.8667 C   0  0  0  0  0  0  0  0  0  0  0  0
    0.4824   10.9895    5.3314 C   0  0  0  0  0  0  0  0  0  0  0  0
    0.4651   -2.5901   -5.3490 C   0  0  0  0  0  0  0  0  0  0  0  0
    0.8532    9.7027    4.6119 C   0  0  0  0  0  0  0  0  0  0  0  0
    0.4403   -1.1999   -4.7120 C   0  0  0  0  0  0  0  0  0  0  0  0
    0.4486   -1.2907   -3.1845 C   0  0  0  0  0  0  0  0  0  0  0  0
    0.4121    0.0751   -2.4929 C   0  0  0  0  0  0  0  0  0  0  0  0
    0.4951   -0.0128   -0.9675 C   0  0  0  0  0  0  0  0  0  0  0  0
    0.4782    1.3790   -0.3309 C   0  0  0  0  0  0  0  0  0  0  0  0
    0.5279    1.2934    1.1964 C   0  0  0  0  0  0  0  0  0  0  0  0
    0.4784    2.6850    1.8309 C   0  0  0  0  0  0  0  0  0  0  0  0
   -0.0977    8.5654    4.9740 C   0  0  0  0  0  0  0  0  0  0  0  0
    0.5953    2.6604    3.3555 C   0  0  0  0  0  0  0  0  0  0  0  0
    0.2438    7.2864    4.2228 C   0  0  0  0  0  0  0  0  0  0  0  0
    0.6234    4.0447    3.9901 C   0  0  0  0  0  0  0  0  0  0  0  0
   -2.0740    4.1845    4.0365 O   0  0  0  0  0  0  0  0  0  0  0  0
   -0.6813    6.2784    4.5909 O   0  0  0  0  0  0  0  0  0  0  0  0
   -0.8734    4.9909    3.6150 P   0  0  1  0  0  0  0  0  0  0  0  0
   -0.4709   -1.9789   -7.2074 H   0  0  0  0  0  0  0  0  0  0  0  0
    1.3033   -1.9834   -7.2547 H   0  0  0  0  0  0  0  0  0  0  0  0
    0.4105   -3.5133   -7.3001 H   0  0  0  0  0  0  0  0  0  0  0  0
    0.4955   10.8498    6.4171 H   0  0  0  0  0  0  0  0  0  0  0  0
    1.1803   11.7946    5.0800 H   0  0  0  0  0  0  0  0  0  0  0  0
   -0.5235   11.3092    5.0422 H   0  0  0  0  0  0  0  0  0  0  0  0
    1.3717   -3.1247   -5.0424 H   0  0  0  0  0  0  0  0  0  0  0  0
   -0.3921   -3.1760   -4.9972 H   0  0  0  0  0  0  0  0  0  0  0  0
    0.8307    9.8765    3.5298 H   0  0  0  0  0  0  0  0  0  0  0  0
    1.8811    9.4271    4.8749 H   0  0  0  0  0  0  0  0  0  0  0  0
    1.3106   -0.6254   -5.0512 H   0  0  0  0  0  0  0  0  0  0  0  0
   -0.4544   -0.6668   -5.0523 H   0  0  0  0  0  0  0  0  0  0  0  0
    1.3587   -1.8118   -2.8621 H   0  0  0  0  0  0  0  0  0  0  0  0
   -0.3993   -1.8978   -2.8446 H   0  0  0  0  0  0  0  0  0  0  0  0
   -0.4995    0.6108   -2.7845 H   0  0  0  0  0  0  0  0  0  0  0  0
    1.2581    0.6674   -2.8635 H   0  0  0  0  0  0  0  0  0  0  0  0
   -0.3480   -0.5942   -0.5780 H   0  0  0  0  0  0  0  0  0  0  0  0
    1.4139   -0.5371   -0.6785 H   0  0  0  0  0  0  0  0  0  0  0  0
    1.3352    1.9593   -0.6941 H   0  0  0  0  0  0  0  0  0  0  0  0
   -0.4287    1.9131   -0.6396 H   0  0  0  0  0  0  0  0  0  0  0  0
    1.4467    0.7806    1.5054 H   0  0  0  0  0  0  0  0  0  0  0  0
   -0.3161    0.6899    1.5489 H   0  0  0  0  0  0  0  0  0  0  0  0
   -0.4507    3.1911    1.5416 H   0  0  0  0  0  0  0  0  0  0  0  0
    1.3036    3.2894    1.4344 H   0  0  0  0  0  0  0  0  0  0  0  0
   -0.0654    8.3723    6.0535 H   0  0  0  0  0  0  0  0  0  0  0  0
   -1.1336    8.8513    4.7521 H   0  0  0  0  0  0  0  0  0  0  0  0
   -0.2278    2.0786    3.7870 H   0  0  0  0  0  0  0  0  0  0  0  0
    1.5172    2.1323    3.6279 H   0  0  0  0  0  0  0  0  0  0  0  0
    0.1793    7.4398    3.1409 H   0  0  0  0  0  0  0  0  0  0  0  0
    1.2520    6.9424    4.4749 H   0  0  0  0  0  0  0  0  0  0  0  0
    0.7079    3.9654    5.0787 H   0  0  0  0  0  0  0  0  0  0  0  0
    1.4767    4.6247    3.6260 H   0  0  0  0  0  0  0  0  0  0  0  0
   -0.8316    5.5669    2.3300 H   0  0  0  0  0  0  0  0  0  0  0  0
  1  3  1  0  0  0  0
  1 19  1  0  0  0  0
  1 20  1  0  0  0  0
  1 21  1  0  0  0  0
  2  4  1  0  0  0  0
  2 22  1  0  0  0  0
  2 23  1  0  0  0  0
  2 24  1  0  0  0  0
  3  5  1  0  0  0  0
  3 25  1  0  0  0  0
  3 26  1  0  0  0  0
  4 12  1  0  0  0  0
  4 27  1  0  0  0  0
  4 28  1  0  0  0  0
  5  6  1  0  0  0  0
  5 29  1  0  0  0  0
  5 30  1  0  0  0  0
  6  7  1  0  0  0  0
  6 31  1  0  0  0  0
  6 32  1  0  0  0  0
  7  8  1  0  0  0  0
  7 33  1  0  0  0  0
  7 34  1  0  0  0  0
  8  9  1  0  0  0  0
  8 35  1  0  0  0  0
  8 36  1  0  0  0  0
  9 10  1  0  0  0  0
  9 37  1  0  0  0  0
  9 38  1  0  0  0  0
 10 11  1  0  0  0  0
 10 39  1  0  0  0  0
 10 40  1  0  0  0  0
 11 13  1  0  0  0  0
 11 41  1  0  0  0  0
 11 42  1  0  0  0  0
 12 14  1  0  0  0  0
 12 43  1  0  0  0  0
 12 44  1  0  0  0  0
 13 15  1  0  0  0  0
 13 45  1  0  0  0  0
 13 46  1  0  0  0  0
 14 17  1  0  0  0  0
 14 47  1  0  0  0  0
 14 48  1  0  0  0  0
 15 18  1  0  0  0  0
 15 49  1  0  0  0  0
 15 50  1  0  0  0  0
 16 18  2  0  0  0  0
 17 18  1  0  0  0  0
 18 51  1  6  0  0  0
M  END
$$$$
DrugBank_2186
 OpenBabel01151909533D

 61 60  0  0  0  0  0  0  0  0999 V2000
    2.4483    2.6636   -0.3863 C   0  0  0  0  0  0  0  0  0  0  0  0
    1.1162    1.7459   -2.2628 C   0  0  0  0  0  0  0  0  0  0  0  0
    3.0905    3.8233   -0.1756 C   0  0  0  0  0  0  0  0  0  0  0  0
    0.4792    0.5980   -2.5375 C   0  0  0  0  0  0  0  0  0  0  0  0
    2.0463    5.7735    0.9547 C   0  0  0  0  0  0  0  0  0  0  0  0
   -1.8363   -0.2382   -2.3213 C   0  0  0  0  0  0  0  0  0  0  0  0
    1.0540    6.0554    1.8129 C   0  0  0  0  0  0  0  0  0  0  0  0
   -2.9977    0.2695   -1.8826 C   0  0  0  0  0  0  0  0  0  0  0  0
   -3.3668    4.1074   -0.5984 C   0  0  0  0  0  0  0  0  0  0  0  0
   -3.1395    1.2707    5.8213 C   0  0  0  0  0  0  0  0  0  0  0  0
    2.4700    1.8097   -1.6207 C   0  0  0  0  0  0  0  0  0  0  0  0
    3.0674    4.6761    1.0602 C   0  0  0  0  0  0  0  0  0  0  0  0
   -0.8745    0.5302   -3.1795 C   0  0  0  0  0  0  0  0  0  0  0  0
    0.0354    7.1523    1.7052 C   0  0  0  0  0  0  0  0  0  0  0  0
   -3.9735   -0.4811   -1.0241 C   0  0  0  0  0  0  0  0  0  0  0  0
   -3.1093    5.0407    0.5738 C   0  0  0  0  0  0  0  0  0  0  0  0
   -1.3864    6.5900    1.7446 C   0  0  0  0  0  0  0  0  0  0  0  0
   -4.2789    0.2576    0.2839 C   0  0  0  0  0  0  0  0  0  0  0  0
   -1.6840    5.5945    0.6186 C   0  0  0  0  0  0  0  0  0  0  0  0
   -3.0271    0.4921    1.1357 C   0  0  0  0  0  0  0  0  0  0  0  0
   -3.3497    1.1964    2.4470 C   0  0  0  0  0  0  0  0  0  0  0  0
   -0.8400    2.2340    2.8521 O   0  0  0  0  0  0  0  0  0  0  0  0
   -2.5054    2.0827    4.8492 O   0  0  0  0  0  0  0  0  0  0  0  0
   -1.3334    0.0459    3.9919 F   0  0  0  0  0  0  0  0  0  0  0  0
   -1.9034    1.4180    3.5083 P   0  0  1  0  0  0  0  0  0  0  0  0
    1.8174    2.2968    0.4228 H   0  0  0  0  0  0  0  0  0  0  0  0
    0.6347    2.6921   -2.4989 H   0  0  0  0  0  0  0  0  0  0  0  0
    3.7139    4.1903   -0.9906 H   0  0  0  0  0  0  0  0  0  0  0  0
    0.9460   -0.3461   -2.2705 H   0  0  0  0  0  0  0  0  0  0  0  0
    2.1528    6.4319    0.0931 H   0  0  0  0  0  0  0  0  0  0  0  0
   -1.5477   -1.2456   -2.0308 H   0  0  0  0  0  0  0  0  0  0  0  0
    0.9749    5.4328    2.7027 H   0  0  0  0  0  0  0  0  0  0  0  0
   -3.2617    1.2933   -2.1368 H   0  0  0  0  0  0  0  0  0  0  0  0
   -2.6599    3.2726   -0.6104 H   0  0  0  0  0  0  0  0  0  0  0  0
   -3.2524    4.6502   -1.5423 H   0  0  0  0  0  0  0  0  0  0  0  0
   -4.3826    3.7015   -0.5617 H   0  0  0  0  0  0  0  0  0  0  0  0
   -3.4800    1.8939    6.6518 H   0  0  0  0  0  0  0  0  0  0  0  0
   -2.4360    0.5163    6.1825 H   0  0  0  0  0  0  0  0  0  0  0  0
   -3.9993    0.7750    5.3644 H   0  0  0  0  0  0  0  0  0  0  0  0
    2.8547    0.8062   -1.4131 H   0  0  0  0  0  0  0  0  0  0  0  0
    3.1739    2.2538   -2.3351 H   0  0  0  0  0  0  0  0  0  0  0  0
    2.9182    4.0843    1.9656 H   0  0  0  0  0  0  0  0  0  0  0  0
    4.0532    5.1452    1.1680 H   0  0  0  0  0  0  0  0  0  0  0  0
   -1.2559    1.5381   -3.3856 H   0  0  0  0  0  0  0  0  0  0  0  0
   -0.7855    0.0334   -4.1525 H   0  0  0  0  0  0  0  0  0  0  0  0
    0.1906    7.7402    0.7971 H   0  0  0  0  0  0  0  0  0  0  0  0
    0.1859    7.8426    2.5439 H   0  0  0  0  0  0  0  0  0  0  0  0
   -3.6131   -1.4933   -0.8045 H   0  0  0  0  0  0  0  0  0  0  0  0
   -4.9042   -0.5964   -1.5924 H   0  0  0  0  0  0  0  0  0  0  0  0
   -3.8325    5.8624    0.5554 H   0  0  0  0  0  0  0  0  0  0  0  0
   -3.2946    4.4912    1.5047 H   0  0  0  0  0  0  0  0  0  0  0  0
   -2.1087    7.4130    1.6641 H   0  0  0  0  0  0  0  0  0  0  0  0
   -1.5717    6.1175    2.7170 H   0  0  0  0  0  0  0  0  0  0  0  0
   -4.9942   -0.3406    0.8619 H   0  0  0  0  0  0  0  0  0  0  0  0
   -4.7720    1.2117    0.0633 H   0  0  0  0  0  0  0  0  0  0  0  0
   -0.9883    4.7499    0.7000 H   0  0  0  0  0  0  0  0  0  0  0  0
   -1.4631    6.0822   -0.3392 H   0  0  0  0  0  0  0  0  0  0  0  0
   -2.2974    1.0938    0.5831 H   0  0  0  0  0  0  0  0  0  0  0  0
   -2.5597   -0.4746    1.3562 H   0  0  0  0  0  0  0  0  0  0  0  0
   -3.8076    2.1735    2.2621 H   0  0  0  0  0  0  0  0  0  0  0  0
   -4.0719    0.5973    3.0114 H   0  0  0  0  0  0  0  0  0  0  0  0
  1  3  2  0  0  0  0
  1 11  1  0  0  0  0
  1 26  1  0  0  0  0
  2  4  2  0  0  0  0
  2 11  1  0  0  0  0
  2 27  1  0  0  0  0
  3 12  1  0  0  0  0
  3 28  1  0  0  0  0
  4 13  1  0  0  0  0
  4 29  1  0  0  0  0
  5  7  2  0  0  0  0
  5 12  1  0  0  0  0
  5 30  1  0  0  0  0
  6  8  2  0  0  0  0
  6 13  1  0  0  0  0
  6 31  1  0  0  0  0
  7 14  1  0  0  0  0
  7 32  1  0  0  0  0
  8 15  1  0  0  0  0
  8 33  1  0  0  0  0
  9 16  1  0  0  0  0
  9 34  1  0  0  0  0
  9 35  1  0  0  0  0
  9 36  1  0  0  0  0
 10 23  1  0  0  0  0
 10 37  1  0  0  0  0
 10 38  1  0  0  0  0
 10 39  1  0  0  0  0
 11 40  1  0  0  0  0
 11 41  1  0  0  0  0
 12 42  1  0  0  0  0
 12 43  1  0  0  0  0
 13 44  1  0  0  0  0
 13 45  1  0  0  0  0
 14 17  1  0  0  0  0
 14 46  1  0  0  0  0
 14 47  1  0  0  0  0
 15 18  1  0  0  0  0
 15 48  1  0  0  0  0
 15 49  1  0  0  0  0
 16 19  1  0  0  0  0
 16 50  1  0  0  0  0
 16 51  1  0  0  0  0
 17 19  1  0  0  0  0
 17 52  1  0  0  0  0
 17 53  1  0  0  0  0
 18 20  1  0  0  0  0
 18 54  1  0  0  0  0
 18 55  1  0  0  0  0
 19 56  1  0  0  0  0
 19 57  1  0  0  0  0
 20 21  1  0  0  0  0
 20 58  1  0  0  0  0
 20 59  1  0  0  0  0
 21 25  1  0  0  0  0
 21 60  1  0  0  0  0
 21 61  1  0  0  0  0
 23 25  1  0  0  0  0
 24 25  1  0  0  0  0
 25 22  2  6  0  0  0
M  END
$$$$
DrugBank_4865
 OpenBabel01151909533D

 26 26  0  0  1  0  0  0  0  0999 V2000
   -4.5364    2.7313    1.2647 C   0  0  0  0  0  0  0  0  0  0  0  0
   -4.6166    1.4120    0.8190 C   0  0  0  0  0  0  0  0  0  0  0  0
   -3.3846    3.4802    1.0236 C   0  0  0  0  0  0  0  0  0  0  0  0
   -3.5449    0.8415    0.1322 C   0  0  0  0  0  0  0  0  0  0  0  0
   -2.3129    2.9097    0.3369 C   0  0  0  0  0  0  0  0  0  0  0  0
   -2.3930    1.5904   -0.1088 C   0  0  0  0  0  0  0  0  0  0  0  0
   -0.7461   -1.1004    0.4600 C   0  0  0  0  0  0  0  0  0  0  0  0
   -1.2322    0.9733   -0.8521 C   0  0  0  0  0  0  0  0  0  0  0  0
    1.1311    0.1464   -0.6346 C   0  0  0  0  0  0  0  0  0  0  0  0
   -0.2181    0.2777    0.0747 C   0  0  2  0  0  0  0  0  0  0  0  0
    2.1751   -0.0893    0.3818 N   0  0  0  0  0  0  0  0  0  0  0  0
    2.4628   -1.2675    0.6489 O   0  0  0  0  0  0  0  0  0  0  0  0
   -1.0081   -1.9914   -0.3383 O   0  0  0  0  0  0  0  0  0  0  0  0
    2.7115    0.9082    0.8917 O   0  0  0  0  0  0  0  0  0  0  0  0
   -0.9238   -1.2370    1.7990 O   0  0  0  0  0  0  0  0  0  0  0  0
   -5.3715    3.1757    1.7983 H   0  0  0  0  0  0  0  0  0  0  0  0
   -5.5138    0.8291    1.0057 H   0  0  0  0  0  0  0  0  0  0  0  0
   -3.3222    4.5077    1.3695 H   0  0  0  0  0  0  0  0  0  0  0  0
   -3.6161   -0.1872   -0.2112 H   0  0  0  0  0  0  0  0  0  0  0  0
   -1.4194    3.5007    0.1537 H   0  0  0  0  0  0  0  0  0  0  0  0
   -1.6101    0.2651   -1.6015 H   0  0  0  0  0  0  0  0  0  0  0  0
   -0.7354    1.7705   -1.4210 H   0  0  0  0  0  0  0  0  0  0  0  0
    1.1808   -0.6967   -1.3289 H   0  0  0  0  0  0  0  0  0  0  0  0
    1.4226    1.0676   -1.1465 H   0  0  0  0  0  0  0  0  0  0  0  0
   -0.0710    0.8746    0.9845 H   0  0  0  0  0  0  0  0  0  0  0  0
   -0.6802   -0.4579    2.3425 H   0  0  0  0  0  0  0  0  0  0  0  0
  1  2  2  0  0  0  0
  1  3  1  0  0  0  0
  1 16  1  0  0  0  0
  2  4  1  0  0  0  0
  2 17  1  0  0  0  0
  3  5  2  0  0  0  0
  3 18  1  0  0  0  0
  4  6  2  0  0  0  0
  4 19  1  0  0  0  0
  5  6  1  0  0  0  0
  5 20  1  0  0  0  0
  6  8  1  0  0  0  0
  7 10  1  0  0  0  0
  7 13  2  0  0  0  0
  7 15  1  0  0  0  0
  8 10  1  0  0  0  0
  8 21  1  0  0  0  0
  8 22  1  0  0  0  0
  9 10  1  0  0  0  0
  9 11  1  0  0  0  0
  9 23  1  0  0  0  0
  9 24  1  0  0  0  0
 10 25  1  1  0  0  0
 11 12  1  0  0  0  0
 11 14  2  0  0  0  0
 15 26  1  0  0  0  0
M  END
$$$$
DrugBank_2208
 OpenBabel01151909533D

 20 19  0  0  0  0  0  0  0  0999 V2000
   -1.9419    2.0879   -0.7605 C   0  0  0  0  0  0  0  0  0  0  0  0
   -1.3868   -0.2365    1.1219 C   0  0  0  0  0  0  0  0  0  0  0  0
   -0.6227    1.5502   -0.2971 C   0  0  0  0  0  0  0  0  0  0  0  0
    0.5312   -0.6323   -0.3356 C   0  0  0  0  0  0  0  0  0  0  0  0
    0.8572   -0.7371   -1.7594 N   0  0  0  0  0  0  0  0  0  0  0  0
    1.6684   -0.0524    0.3792 N   0  0  0  0  0  0  0  0  0  0  0  0
   -0.7361    0.0987   -0.1449 N   0  0  0  0  0  0  0  0  0  0  0  0
   -2.9588    1.4415   -0.9632 O   0  0  0  0  0  0  0  0  0  0  0  0
   -1.8594    3.4328   -0.9315 O   0  0  0  0  0  0  0  0  0  0  0  0
   -1.4674   -1.3215    1.2273 H   0  0  0  0  0  0  0  0  0  0  0  0
   -2.3904    0.1960    1.1574 H   0  0  0  0  0  0  0  0  0  0  0  0
   -0.8060    0.1564    1.9607 H   0  0  0  0  0  0  0  0  0  0  0  0
    0.1461    1.7701   -1.0426 H   0  0  0  0  0  0  0  0  0  0  0  0
   -0.3595    1.9914    0.6678 H   0  0  0  0  0  0  0  0  0  0  0  0
    0.3960   -1.6604    0.0218 H   0  0  0  0  0  0  0  0  0  0  0  0
    0.1040   -1.2289   -2.2385 H   0  0  0  0  0  0  0  0  0  0  0  0
    1.6912   -1.3120   -1.8708 H   0  0  0  0  0  0  0  0  0  0  0  0
    1.4966   -0.0939    1.3824 H   0  0  0  0  0  0  0  0  0  0  0  0
    2.4948   -0.6243    0.2105 H   0  0  0  0  0  0  0  0  0  0  0  0
   -0.9643    3.7740   -0.7200 H   0  0  0  0  0  0  0  0  0  0  0  0
  1  3  1  0  0  0  0
  1  8  2  0  0  0  0
  1  9  1  0  0  0  0
  2  7  1  0  0  0  0
  2 10  1  0  0  0  0
  2 11  1  0  0  0  0
  2 12  1  0  0  0  0
  3  7  1  0  0  0  0
  3 13  1  0  0  0  0
  3 14  1  0  0  0  0
  4  5  1  0  0  0  0
  4  6  1  0  0  0  0
  4  7  1  0  0  0  0
  4 15  1  0  0  0  0
  5 16  1  0  0  0  0
  5 17  1  0  0  0  0
  6 18  1  0  0  0  0
  6 19  1  0  0  0  0
  9 20  1  0  0  0  0
M  END
$$$$
DrugBank_2210
 OpenBabel01151909533D

 38 38  0  0  1  0  0  0  0  0999 V2000
    1.8459    0.2193   -2.2113 C   0  0  0  0  0  0  0  0  0  0  0  0
    0.8737   -0.7656   -2.8574 C   0  0  2  0  0  0  0  0  0  0  0  0
    0.2770   -1.5607   -1.6988 C   0  0  1  0  0  0  0  0  0  0  0  0
    0.6152   -0.7299   -0.4623 C   0  0  1  0  0  0  0  0  0  0  0  0
    0.6001   -1.5784    0.8052 C   0  0  0  0  0  0  0  0  0  0  0  0
    2.4108    0.8506    0.0571 C   0  0  0  0  0  0  0  0  0  0  0  0
    5.9805    2.3353    0.7613 C   0  0  0  0  0  0  0  0  0  0  0  0
    3.9278    1.0588   -0.0383 C   0  0  1  0  0  0  0  0  0  0  0  0
    4.4602    2.2041    0.8396 C   0  0  1  0  0  0  0  0  0  0  0  0
    1.9478   -0.2230   -0.8131 N   0  0  0  0  0  0  0  0  0  0  0  0
    5.3737    3.7730    3.2532 O   0  0  0  0  0  0  0  0  0  0  0  0
    3.6353    2.5777    4.5065 O   0  0  0  0  0  0  0  0  0  0  0  0
    3.0019    4.1025    2.6913 O   0  0  0  0  0  0  0  0  0  0  0  0
    1.5610   -1.6549   -3.7275 O   0  0  0  0  0  0  0  0  0  0  0  0
   -1.1301   -1.6793   -1.8416 O   0  0  0  0  0  0  0  0  0  0  0  0
   -0.6975   -2.1205    0.9691 O   0  0  0  0  0  0  0  0  0  0  0  0
    6.3465    2.6286   -0.5834 O   0  0  0  0  0  0  0  0  0  0  0  0
    4.5671   -0.1594    0.3512 O   0  0  0  0  0  0  0  0  0  0  0  0
    4.0960    1.9607    2.1998 O   0  0  0  0  0  0  0  0  0  0  0  0
    4.0219    3.2157    3.2490 S   0  0  0  0  0  0  0  0  0  0  0  0
    2.8282    0.2273   -2.6948 H   0  0  0  0  0  0  0  0  0  0  0  0
    1.4163    1.2279   -2.2679 H   0  0  0  0  0  0  0  0  0  0  0  0
    0.1108   -0.2406   -3.4437 H   0  0  0  0  0  0  0  0  0  0  0  0
    0.7040   -2.5716   -1.6458 H   0  0  0  0  0  0  0  0  0  0  0  0
   -0.1123    0.0879   -0.3505 H   0  0  0  0  0  0  0  0  0  0  0  0
    0.8444   -0.9605    1.6692 H   0  0  0  0  0  0  0  0  0  0  0  0
    1.3217   -2.3906    0.7178 H   0  0  0  0  0  0  0  0  0  0  0  0
    2.1401    0.6168    1.0939 H   0  0  0  0  0  0  0  0  0  0  0  0
    1.8810    1.7784   -0.1871 H   0  0  0  0  0  0  0  0  0  0  0  0
    6.3455    3.1535    1.3904 H   0  0  0  0  0  0  0  0  0  0  0  0
    6.4710    1.4008    1.0504 H   0  0  0  0  0  0  0  0  0  0  0  0
    4.2097    1.2500   -1.0812 H   0  0  0  0  0  0  0  0  0  0  0  0
    3.9928    3.1521    0.5492 H   0  0  0  0  0  0  0  0  0  0  0  0
    0.8929   -2.2505   -4.1035 H   0  0  0  0  0  0  0  0  0  0  0  0
   -1.2903   -2.1404   -2.6814 H   0  0  0  0  0  0  0  0  0  0  0  0
   -0.6829   -2.6558    1.7808 H   0  0  0  0  0  0  0  0  0  0  0  0
    7.3135    2.7049   -0.5971 H   0  0  0  0  0  0  0  0  0  0  0  0
    4.2593   -0.8376   -0.2677 H   0  0  0  0  0  0  0  0  0  0  0  0
  1  2  1  0  0  0  0
  1 10  1  0  0  0  0
  1 21  1  0  0  0  0
  1 22  1  0  0  0  0
  2  3  1  1  0  0  0
  2 14  1  0  0  0  0
  2 23  1  0  0  0  0
  3  4  1  1  0  0  0
  3 15  1  0  0  0  0
  3 24  1  0  0  0  0
  4  5  1  0  0  0  0
  4 10  1  0  0  0  0
  4 25  1  1  0  0  0
  5 16  1  0  0  0  0
  5 26  1  0  0  0  0
  5 27  1  0  0  0  0
  6  8  1  0  0  0  0
  6 10  1  0  0  0  0
  6 28  1  0  0  0  0
  6 29  1  0  0  0  0
  7  9  1  0  0  0  0
  7 17  1  0  0  0  0
  7 30  1  0  0  0  0
  7 31  1  0  0  0  0
  8  9  1  0  0  0  0
  8 18  1  0  0  0  0
  8 32  1  6  0  0  0
  9 19  1  0  0  0  0
  9 33  1  6  0  0  0
 11 20  1  0  0  0  0
 12 20  1  0  0  0  0
 13 20  1  0  0  0  0
 14 34  1  0  0  0  0
 15 35  1  0  0  0  0
 16 36  1  0  0  0  0
 17 37  1  0  0  0  0
 18 38  1  0  0  0  0
 19 20  1  0  0  0  0
M  END
$$$$
DrugBank_4885
 OpenBabel01151909533D

 39 42  0  0  0  0  0  0  0  0999 V2000
   -0.3959    4.4535  -11.8721 C   0  0  0  0  0  0  0  0  0  0  0  0
    0.8590    4.1775  -11.3375 C   0  0  0  0  0  0  0  0  0  0  0  0
   -1.5192    3.7690  -11.4073 C   0  0  0  0  0  0  0  0  0  0  0  0
    0.9955    3.2159  -10.3359 C   0  0  0  0  0  0  0  0  0  0  0  0
   -2.5203    2.0993   -9.9198 C   0  0  0  0  0  0  0  0  0  0  0  0
   -2.3839    1.1377   -8.9183 C   0  0  0  0  0  0  0  0  0  0  0  0
   -0.0056    1.5461   -8.8484 C   0  0  0  0  0  0  0  0  0  0  0  0
    1.3868    0.3526   -3.0107 C   0  0  0  0  0  0  0  0  0  0  0  0
   -1.4005    2.7979  -10.3997 C   0  0  0  0  0  0  0  0  0  0  0  0
   -0.1243    2.5172   -9.8560 C   0  0  0  0  0  0  0  0  0  0  0  0
   -1.1289    0.8616   -8.3836 C   0  0  0  0  0  0  0  0  0  0  0  0
    1.0216    0.9375   -1.7834 C   0  0  0  0  0  0  0  0  0  0  0  0
    0.2883    0.5299   -3.8159 C   0  0  0  0  0  0  0  0  0  0  0  0
   -1.1228    0.3891   -5.8977 C   0  0  0  0  0  0  0  0  0  0  0  0
    2.2311    2.3091    0.0922 C   0  0  0  0  0  0  0  0  0  0  0  0
    3.3007    1.5908   -0.6694 C   0  0  0  0  0  0  0  0  0  0  0  0
    1.9193    0.9873   -0.5697 C   0  0  0  0  0  0  0  0  0  0  0  0
   -0.9851   -0.1667   -7.3127 C   0  0  0  0  0  0  0  0  0  0  0  0
   -0.2124    1.4483   -1.8026 N   0  0  0  0  0  0  0  0  0  0  0  0
   -0.6321    1.1849   -3.0518 N   0  0  0  0  0  0  0  0  0  0  0  0
    0.0360    0.1629   -5.1592 N   0  0  0  0  0  0  0  0  0  0  0  0
   -2.1467    0.9497   -5.5202 O   0  0  0  0  0  0  0  0  0  0  0  0
   -0.5010    5.2020  -12.6519 H   0  0  0  0  0  0  0  0  0  0  0  0
    1.7330    4.7105  -11.7002 H   0  0  0  0  0  0  0  0  0  0  0  0
   -2.4902    4.0017  -11.8398 H   0  0  0  0  0  0  0  0  0  0  0  0
    1.9863    3.0162   -9.9327 H   0  0  0  0  0  0  0  0  0  0  0  0
   -3.5110    2.2987  -10.3235 H   0  0  0  0  0  0  0  0  0  0  0  0
   -3.2639    0.6088   -8.5621 H   0  0  0  0  0  0  0  0  0  0  0  0
    0.9704    1.3208   -8.4214 H   0  0  0  0  0  0  0  0  0  0  0  0
    2.3167   -0.1306   -3.2751 H   0  0  0  0  0  0  0  0  0  0  0  0
    2.3101    2.3310    1.1731 H   0  0  0  0  0  0  0  0  0  0  0  0
    1.8247    3.2151   -0.3421 H   0  0  0  0  0  0  0  0  0  0  0  0
    3.6139    2.0135   -1.6172 H   0  0  0  0  0  0  0  0  0  0  0  0
    4.1008    1.1281   -0.1032 H   0  0  0  0  0  0  0  0  0  0  0  0
    1.8256    0.1232    0.1119 H   0  0  0  0  0  0  0  0  0  0  0  0
   -1.7383   -0.9614   -7.4414 H   0  0  0  0  0  0  0  0  0  0  0  0
   -0.0046   -0.6645   -7.3909 H   0  0  0  0  0  0  0  0  0  0  0  0
   -1.5625    1.4817   -3.3184 H   0  0  0  0  0  0  0  0  0  0  0  0
    0.7892   -0.3229   -5.6418 H   0  0  0  0  0  0  0  0  0  0  0  0
  1  2  2  0  0  0  0
  1  3  1  0  0  0  0
  1 23  1  0  0  0  0
  2  4  1  0  0  0  0
  2 24  1  0  0  0  0
  3  9  2  0  0  0  0
  3 25  1  0  0  0  0
  4 10  2  0  0  0  0
  4 26  1  0  0  0  0
  5  6  2  0  0  0  0
  5  9  1  0  0  0  0
  5 27  1  0  0  0  0
  6 11  1  0  0  0  0
  6 28  1  0  0  0  0
  7 10  1  0  0  0  0
  7 11  2  0  0  0  0
  7 29  1  0  0  0  0
  8 12  1  0  0  0  0
  8 13  2  0  0  0  0
  8 30  1  0  0  0  0
  9 10  1  0  0  0  0
 11 18  1  0  0  0  0
 12 17  1  0  0  0  0
 12 19  2  0  0  0  0
 13 20  1  0  0  0  0
 13 21  1  0  0  0  0
 14 18  1  0  0  0  0
 14 21  1  0  0  0  0
 14 22  2  0  0  0  0
 15 16  1  0  0  0  0
 15 17  1  0  0  0  0
 15 31  1  0  0  0  0
 15 32  1  0  0  0  0
 16 17  1  0  0  0  0
 16 33  1  0  0  0  0
 16 34  1  0  0  0  0
 17 35  1  0  0  0  0
 18 36  1  0  0  0  0
 18 37  1  0  0  0  0
 19 20  1  0  0  0  0
 20 38  1  0  0  0  0
 21 39  1  0  0  0  0
M  END
$$$$
DrugBank_2228
 OpenBabel01151909533D

 51 54  0  0  1  0  0  0  0  0999 V2000
    1.1183   -0.5184    5.1349 C   0  0  0  0  0  0  0  0  0  0  0  0
   -2.1322   -0.1230    2.2690 C   0  0  0  0  0  0  0  0  0  0  0  0
   -1.2345   -0.9935    3.9951 C   0  0  0  0  0  0  0  0  0  0  0  0
   -0.3236   -0.0630    3.5209 C   0  0  0  0  0  0  0  0  0  0  0  0
   -0.8714   -1.7051    5.1342 C   0  0  0  0  0  0  0  0  0  0  0  0
   -5.6370    5.7783    1.0599 C   0  0  0  0  0  0  0  0  0  0  0  0
   -8.5709    6.9995    2.5008 C   0  0  0  0  0  0  0  0  0  0  0  0
   -7.9493    6.7653    1.1319 C   0  0  0  0  0  0  0  0  0  0  0  0
   -8.5189    5.6325    3.1500 C   0  0  0  0  0  0  0  0  0  0  0  0
   -7.0873    5.5179    1.3042 C   0  0  2  0  0  0  0  0  0  0  0  0
    0.1385    2.0525   -0.6912 C   0  0  2  0  0  0  0  0  0  0  0  0
    0.3852    0.9698    0.3367 C   0  0  2  0  0  0  0  0  0  0  0  0
   -1.2921    2.4556   -0.3738 C   0  0  2  0  0  0  0  0  0  0  0  0
   -0.3571    1.5191    1.5483 C   0  0  2  0  0  0  0  0  0  0  0  0
   -1.6307    3.8699   -0.8096 C   0  0  0  0  0  0  0  0  0  0  0  0
    0.8782    0.2328    4.0381 N   0  0  0  0  0  0  0  0  0  0  0  0
    0.3297   -1.4580    5.7103 N   0  0  0  0  0  0  0  0  0  0  0  0
   -2.3567   -1.0206    3.2058 N   0  0  0  0  0  0  0  0  0  0  0  0
   -0.9134    0.4840    2.4171 N   0  0  0  0  0  0  0  0  0  0  0  0
   -7.2267    5.1200    2.7051 N   0  0  0  0  0  0  0  0  0  0  0  0
   -1.7341   -2.6687    5.6840 N   0  0  0  0  0  0  0  0  0  0  0  0
   -5.2262    5.4971   -0.2806 N   0  0  0  0  0  0  0  0  0  0  0  0
   -4.8822    6.1887    1.9343 O   0  0  0  0  0  0  0  0  0  0  0  0
   -3.6563    5.7286   -2.2881 O   0  0  0  0  0  0  0  0  0  0  0  0
   -2.9181    6.6043   -0.0463 O   0  0  0  0  0  0  0  0  0  0  0  0
   -1.4267    2.3479    1.0536 O   0  0  0  0  0  0  0  0  0  0  0  0
    0.2665    1.5431   -2.0049 O   0  0  0  0  0  0  0  0  0  0  0  0
    1.7661    0.8230    0.6176 O   0  0  0  0  0  0  0  0  0  0  0  0
   -2.9832    4.1397   -0.4788 O   0  0  0  0  0  0  0  0  0  0  0  0
   -3.6105    5.6069   -0.8422 S   0  0  0  0  0  0  0  0  0  0  0  0
    2.0720   -0.3463    5.6224 H   0  0  0  0  0  0  0  0  0  0  0  0
   -2.8087    0.1287    1.4637 H   0  0  0  0  0  0  0  0  0  0  0  0
   -7.9651    7.7167    3.0682 H   0  0  0  0  0  0  0  0  0  0  0  0
   -9.5893    7.3930    2.4316 H   0  0  0  0  0  0  0  0  0  0  0  0
   -8.7424    6.5602    0.4026 H   0  0  0  0  0  0  0  0  0  0  0  0
   -7.4007    7.6490    0.7902 H   0  0  0  0  0  0  0  0  0  0  0  0
   -8.5841    5.6867    4.2405 H   0  0  0  0  0  0  0  0  0  0  0  0
   -9.3271    4.9882    2.7856 H   0  0  0  0  0  0  0  0  0  0  0  0
   -7.4089    4.7142    0.6411 H   0  0  0  0  0  0  0  0  0  0  0  0
    0.8479    2.8789   -0.5638 H   0  0  0  0  0  0  0  0  0  0  0  0
   -0.0037    0.0013    0.0010 H   0  0  0  0  0  0  0  0  0  0  0  0
   -2.0060    1.7611   -0.8327 H   0  0  0  0  0  0  0  0  0  0  0  0
    0.2955    2.1397    2.1996 H   0  0  0  0  0  0  0  0  0  0  0  0
   -1.5011    3.9754   -1.8893 H   0  0  0  0  0  0  0  0  0  0  0  0
   -0.9888    4.5894   -0.2959 H   0  0  0  0  0  0  0  0  0  0  0  0
   -7.2547    4.1007    2.7727 H   0  0  0  0  0  0  0  0  0  0  0  0
   -2.6392   -2.8096    5.2767 H   0  0  0  0  0  0  0  0  0  0  0  0
   -1.4740   -3.1365    6.5315 H   0  0  0  0  0  0  0  0  0  0  0  0
   -5.9286    5.1518   -0.9474 H   0  0  0  0  0  0  0  0  0  0  0  0
    0.0978    2.2810   -2.6159 H   0  0  0  0  0  0  0  0  0  0  0  0
    1.8486    0.1163    1.2803 H   0  0  0  0  0  0  0  0  0  0  0  0
  1 16  2  0  0  0  0
  1 17  1  0  0  0  0
  1 31  1  0  0  0  0
  2 18  2  0  0  0  0
  2 19  1  0  0  0  0
  2 32  1  0  0  0  0
  3  4  2  0  0  0  0
  3  5  1  0  0  0  0
  3 18  1  0  0  0  0
  4 16  1  0  0  0  0
  4 19  1  0  0  0  0
  5 17  2  0  0  0  0
  5 21  1  0  0  0  0
  6 10  1  0  0  0  0
  6 22  1  0  0  0  0
  6 23  2  0  0  0  0
  7  8  1  0  0  0  0
  7  9  1  0  0  0  0
  7 33  1  0  0  0  0
  7 34  1  0  0  0  0
  8 10  1  0  0  0  0
  8 35  1  0  0  0  0
  8 36  1  0  0  0  0
  9 20  1  0  0  0  0
  9 37  1  0  0  0  0
  9 38  1  0  0  0  0
 10 20  1  0  0  0  0
 10 39  1  6  0  0  0
 11 12  1  1  0  0  0
 11 27  1  0  0  0  0
 11 40  1  0  0  0  0
 12 14  1  1  0  0  0
 12 28  1  0  0  0  0
 12 41  1  0  0  0  0
 13 11  1  6  0  0  0
 13 15  1  0  0  0  0
 13 26  1  0  0  0  0
 13 42  1  0  0  0  0
 14 19  1  0  0  0  0
 14 26  1  0  0  0  0
 14 43  1  1  0  0  0
 15 29  1  0  0  0  0
 15 44  1  0  0  0  0
 15 45  1  0  0  0  0
 20 46  1  0  0  0  0
 21 47  1  0  0  0  0
 21 48  1  0  0  0  0
 22 30  1  0  0  0  0
 22 49  1  0  0  0  0
 24 30  2  0  0  0  0
 25 30  2  0  0  0  0
 27 50  1  0  0  0  0
 28 51  1  0  0  0  0
 29 30  1  0  0  0  0
M  END
$$$$
DrugBank_4895
 OpenBabel01151909533D

 45 47  0  0  0  0  0  0  0  0999 V2000
    4.9276   -6.6505   -3.1352 C   0  0  0  0  0  0  0  0  0  0  0  0
    4.6883   -8.0236   -2.9965 C   0  0  0  0  0  0  0  0  0  0  0  0
    3.3141   -7.6454   -1.0246 C   0  0  0  0  0  0  0  0  0  0  0  0
    4.3585   -5.7834   -2.2172 C   0  0  0  0  0  0  0  0  0  0  0  0
    3.8880   -8.5159   -1.9496 C   0  0  0  0  0  0  0  0  0  0  0  0
    3.5716   -6.3011   -1.1926 C   0  0  0  0  0  0  0  0  0  0  0  0
    4.4682   -4.3299   -2.1623 C   0  0  0  0  0  0  0  0  0  0  0  0
    3.7905   -3.7843   -1.1383 C   0  0  0  0  0  0  0  0  0  0  0  0
    0.6317    0.9797   -2.3571 C   0  0  0  0  0  0  0  0  0  0  0  0
    1.5891    0.6711   -3.5032 C   0  0  0  0  0  0  0  0  0  0  0  0
    0.6435    0.0256   -1.1677 C   0  0  0  0  0  0  0  0  0  0  0  0
    1.7646   -0.8107   -3.8168 C   0  0  0  0  0  0  0  0  0  0  0  0
    2.0249   -0.4626   -0.7387 C   0  0  0  0  0  0  0  0  0  0  0  0
    2.8501   -1.4706   -2.9666 C   0  0  0  0  0  0  0  0  0  0  0  0
    2.4808   -1.7201   -1.4975 C   0  0  0  0  0  0  0  0  0  0  0  0
    3.6813   -2.3476   -0.7781 C   0  0  0  0  0  0  0  0  0  0  0  0
    2.3095  -12.1049   -1.8241 N   0  0  0  0  0  0  0  0  0  0  0  0
    3.6123   -5.1380    1.1109 O   0  0  0  0  0  0  0  0  0  0  0  0
    1.5492   -4.9265   -0.3673 O   0  0  0  0  0  0  0  0  0  0  0  0
    1.1655   -9.8176   -1.7810 O   0  0  0  0  0  0  0  0  0  0  0  0
    2.4719  -10.5951    0.2343 O   0  0  0  0  0  0  0  0  0  0  0  0
    3.6732   -9.8569   -1.8407 O   0  0  0  0  0  0  0  0  0  0  0  0
    2.9833   -5.0065   -0.1864 S   0  0  0  0  0  0  0  0  0  0  0  0
    2.3077  -10.5043   -1.2053 S   0  0  0  0  0  0  0  0  0  0  0  0
    5.5473   -6.2852   -3.9479 H   0  0  0  0  0  0  0  0  0  0  0  0
    5.1295   -8.7147   -3.7108 H   0  0  0  0  0  0  0  0  0  0  0  0
    2.6954   -8.0100   -0.2128 H   0  0  0  0  0  0  0  0  0  0  0  0
    5.0448   -3.7733   -2.8870 H   0  0  0  0  0  0  0  0  0  0  0  0
    0.8460    1.9960   -2.0023 H   0  0  0  0  0  0  0  0  0  0  0  0
   -0.3929    1.0154   -2.7492 H   0  0  0  0  0  0  0  0  0  0  0  0
    1.2099    1.1794   -4.3990 H   0  0  0  0  0  0  0  0  0  0  0  0
    2.5656    1.1267   -3.2965 H   0  0  0  0  0  0  0  0  0  0  0  0
    0.1788    0.5491   -0.3221 H   0  0  0  0  0  0  0  0  0  0  0  0
   -0.0086   -0.8316   -1.3763 H   0  0  0  0  0  0  0  0  0  0  0  0
    0.8155   -1.3524   -3.7352 H   0  0  0  0  0  0  0  0  0  0  0  0
    2.0795   -0.8937   -4.8650 H   0  0  0  0  0  0  0  0  0  0  0  0
    2.7683    0.3394   -0.8223 H   0  0  0  0  0  0  0  0  0  0  0  0
    1.9615   -0.7136    0.3284 H   0  0  0  0  0  0  0  0  0  0  0  0
    3.0922   -2.4379   -3.4267 H   0  0  0  0  0  0  0  0  0  0  0  0
    3.7692   -0.8727   -3.0237 H   0  0  0  0  0  0  0  0  0  0  0  0
    1.6674   -2.4574   -1.4706 H   0  0  0  0  0  0  0  0  0  0  0  0
    3.5531   -2.2544    0.2978 H   0  0  0  0  0  0  0  0  0  0  0  0
    4.5933   -1.8371   -1.0790 H   0  0  0  0  0  0  0  0  0  0  0  0
    2.5126  -12.2095   -2.8265 H   0  0  0  0  0  0  0  0  0  0  0  0
    1.5452  -12.7180   -1.5133 H   0  0  0  0  0  0  0  0  0  0  0  0
  1  2  2  0  0  0  0
  1  4  1  0  0  0  0
  1 25  1  0  0  0  0
  2  5  1  0  0  0  0
  2 26  1  0  0  0  0
  3  5  2  0  0  0  0
  3  6  1  0  0  0  0
  3 27  1  0  0  0  0
  4  6  2  0  0  0  0
  4  7  1  0  0  0  0
  5 22  1  0  0  0  0
  6 23  1  0  0  0  0
  7  8  2  0  0  0  0
  7 28  1  0  0  0  0
  8 16  1  0  0  0  0
  8 23  1  0  0  0  0
  9 10  1  0  0  0  0
  9 11  1  0  0  0  0
  9 29  1  0  0  0  0
  9 30  1  0  0  0  0
 10 12  1  0  0  0  0
 10 31  1  0  0  0  0
 10 32  1  0  0  0  0
 11 13  1  0  0  0  0
 11 33  1  0  0  0  0
 11 34  1  0  0  0  0
 12 14  1  0  0  0  0
 12 35  1  0  0  0  0
 12 36  1  0  0  0  0
 13 15  1  0  0  0  0
 13 37  1  0  0  0  0
 13 38  1  0  0  0  0
 14 15  1  0  0  0  0
 14 39  1  0  0  0  0
 14 40  1  0  0  0  0
 15 16  1  0  0  0  0
 15 41  1  0  0  0  0
 16 42  1  0  0  0  0
 16 43  1  0  0  0  0
 17 24  1  0  0  0  0
 17 44  1  0  0  0  0
 17 45  1  0  0  0  0
 18 23  2  0  0  0  0
 19 23  2  0  0  0  0
 20 24  2  0  0  0  0
 21 24  2  0  0  0  0
 22 24  1  0  0  0  0
M  END
$$$$
DrugBank_2237
 OpenBabel01151909533D

 34 37  0  0  0  0  0  0  0  0999 V2000
   -0.4722   -7.3299   -7.1191 C   0  0  0  0  0  0  0  0  0  0  0  0
   -0.1838   -8.5247   -6.4296 C   0  0  0  0  0  0  0  0  0  0  0  0
   -0.4965   -6.1054   -6.4504 C   0  0  0  0  0  0  0  0  0  0  0  0
    0.0862   -8.5203   -5.0556 C   0  0  0  0  0  0  0  0  0  0  0  0
    0.3519   -2.0775    0.4422 C   0  0  0  0  0  0  0  0  0  0  0  0
    0.0489   -1.0083   -0.4029 C   0  0  0  0  0  0  0  0  0  0  0  0
   -0.1402   -2.5032   -2.3253 C   0  0  0  0  0  0  0  0  0  0  0  0
   -0.2269   -6.1319   -5.0986 C   0  0  0  0  0  0  0  0  0  0  0  0
    0.1604   -3.5565   -1.4826 C   0  0  0  0  0  0  0  0  0  0  0  0
    0.0616   -7.3096   -4.3957 C   0  0  0  0  0  0  0  0  0  0  0  0
    0.4008   -3.3366   -0.1231 C   0  0  0  0  0  0  0  0  0  0  0  0
   -0.1948   -1.2188   -1.7733 C   0  0  0  0  0  0  0  0  0  0  0  0
    0.3033   -4.9945   -1.6833 C   0  0  0  0  0  0  0  0  0  0  0  0
   -0.1732   -5.0317   -4.1192 C   0  0  0  0  0  0  0  0  0  0  0  0
    0.1692   -5.6939   -2.8118 C   0  0  0  0  0  0  0  0  0  0  0  0
    0.6440   -5.6207   -0.3620 C   0  0  0  0  0  0  0  0  0  0  0  0
    0.2923   -7.0384   -3.0530 N   0  0  0  0  0  0  0  0  0  0  0  0
    0.6826   -4.5427    0.5281 N   0  0  0  0  0  0  0  0  0  0  0  0
   -0.3648   -3.8555   -4.3396 O   0  0  0  0  0  0  0  0  0  0  0  0
    0.8374   -6.8024   -0.1432 O   0  0  0  0  0  0  0  0  0  0  0  0
   -1.3126   -0.3501   -3.9490 O   0  0  0  0  0  0  0  0  0  0  0  0
   -1.1325    1.1766   -1.9413 O   0  0  0  0  0  0  0  0  0  0  0  0
    0.8725    0.6748   -3.3533 O   0  0  0  0  0  0  0  0  0  0  0  0
   -0.5713    0.1456   -2.7993 S   0  0  0  0  0  0  0  0  0  0  0  0
   -0.6775   -7.3654   -8.1858 H   0  0  0  0  0  0  0  0  0  0  0  0
   -0.1716   -9.4647   -6.9755 H   0  0  0  0  0  0  0  0  0  0  0  0
   -0.7174   -5.1842   -6.9758 H   0  0  0  0  0  0  0  0  0  0  0  0
    0.3062   -9.4458   -4.5350 H   0  0  0  0  0  0  0  0  0  0  0  0
    0.5397   -1.9169    1.4976 H   0  0  0  0  0  0  0  0  0  0  0  0
    0.0026   -0.0037    0.0111 H   0  0  0  0  0  0  0  0  0  0  0  0
   -0.3283   -2.6649   -3.3816 H   0  0  0  0  0  0  0  0  0  0  0  0
    0.5181   -7.7158   -2.3441 H   0  0  0  0  0  0  0  0  0  0  0  0
    0.8882   -4.6244    1.5169 H   0  0  0  0  0  0  0  0  0  0  0  0
    1.3484    0.0510   -3.9507 H   0  0  0  0  0  0  0  0  0  0  0  0
  1  2  2  0  0  0  0
  1  3  1  0  0  0  0
  1 25  1  0  0  0  0
  2  4  1  0  0  0  0
  2 26  1  0  0  0  0
  3  8  2  0  0  0  0
  3 27  1  0  0  0  0
  4 10  2  0  0  0  0
  4 28  1  0  0  0  0
  5  6  2  0  0  0  0
  5 11  1  0  0  0  0
  5 29  1  0  0  0  0
  6 12  1  0  0  0  0
  6 30  1  0  0  0  0
  7  9  1  0  0  0  0
  7 12  2  0  0  0  0
  7 31  1  0  0  0  0
  8 10  1  0  0  0  0
  8 14  1  0  0  0  0
  9 11  2  0  0  0  0
  9 13  1  0  0  0  0
 10 17  1  0  0  0  0
 11 18  1  0  0  0  0
 12 24  1  0  0  0  0
 13 15  2  0  0  0  0
 13 16  1  0  0  0  0
 14 15  1  0  0  0  0
 14 19  2  0  0  0  0
 15 17  1  0  0  0  0
 16 18  1  0  0  0  0
 16 20  2  0  0  0  0
 17 32  1  0  0  0  0
 18 33  1  0  0  0  0
 21 24  2  0  0  0  0
 22 24  2  0  0  0  0
 23 24  1  0  0  0  0
 23 34  1  0  0  0  0
M  END
$$$$
DrugBank_2238
 OpenBabel01151909533D

 19 18  0  0  0  0  0  0  0  0999 V2000
    1.2787    0.2260    2.8856 C   0  0  0  0  0  0  0  0  0  0  0  0
   -0.0812    0.6147   -0.0983 C   0  0  0  0  0  0  0  0  0  0  0  0
    1.4675   -2.9442    1.9350 C   0  0  0  0  0  0  0  0  0  0  0  0
   -0.2629   -0.3904    0.9878 C   0  0  0  0  0  0  0  0  0  0  0  0
    1.8205   -1.6543    1.2759 C   0  0  0  0  0  0  0  0  0  0  0  0
    0.9703   -0.5628    1.7603 N   0  0  0  0  0  0  0  0  0  0  0  0
    0.3264    1.4629    3.5256 S   0  0  0  0  0  0  0  0  0  0  0  0
    2.8067   -0.1371    3.7122 S   0  0  0  0  0  0  0  0  0  0  0  0
    0.1892    1.5923    0.3152 H   0  0  0  0  0  0  0  0  0  0  0  0
    0.6945    0.2931   -0.8017 H   0  0  0  0  0  0  0  0  0  0  0  0
   -1.0177    0.7314   -0.6568 H   0  0  0  0  0  0  0  0  0  0  0  0
    1.6011   -2.8779    3.0202 H   0  0  0  0  0  0  0  0  0  0  0  0
    0.4315   -3.2241    1.7151 H   0  0  0  0  0  0  0  0  0  0  0  0
    2.1205   -3.7425    1.5624 H   0  0  0  0  0  0  0  0  0  0  0  0
   -0.5328   -1.3641    0.5680 H   0  0  0  0  0  0  0  0  0  0  0  0
   -1.0488   -0.0752    1.6805 H   0  0  0  0  0  0  0  0  0  0  0  0
    1.6849   -1.7275    0.1927 H   0  0  0  0  0  0  0  0  0  0  0  0
    2.8601   -1.3842    1.4836 H   0  0  0  0  0  0  0  0  0  0  0  0
    2.6972    0.7996    4.6655 H   0  0  0  0  0  0  0  0  0  0  0  0
  1  6  1  0  0  0  0
  1  7  2  0  0  0  0
  1  8  1  0  0  0  0
  2  4  1  0  0  0  0
  2  9  1  0  0  0  0
  2 10  1  0  0  0  0
  2 11  1  0  0  0  0
  3  5  1  0  0  0  0
  3 12  1  0  0  0  0
  3 13  1  0  0  0  0
  3 14  1  0  0  0  0
  4  6  1  0  0  0  0
  4 15  1  0  0  0  0
  4 16  1  0  0  0  0
  5  6  1  0  0  0  0
  5 17  1  0  0  0  0
  5 18  1  0  0  0  0
  8 19  1  0  0  0  0
M  END
$$$$
DrugBank_2276
 OpenBabel01151909533D

 55 58  0  0  1  0  0  0  0  0999 V2000
   -1.6646    0.2434   -2.2493 C   0  0  0  0  0  0  0  0  0  0  0  0
   -2.4350   -0.4825   -1.1377 C   0  0  0  0  0  0  0  0  0  0  0  0
   -0.1842   -0.1544   -2.3061 C   0  0  0  0  0  0  0  0  0  0  0  0
    0.2787    0.2747    3.9823 C   0  0  0  0  0  0  0  0  0  0  0  0
   -1.7394   -0.3923    0.2278 C   0  0  0  0  0  0  0  0  0  0  0  0
    0.8118    0.8169    5.3067 C   0  0  0  0  0  0  0  0  0  0  0  0
    1.8768   -0.4455   -0.7542 C   0  0  0  0  0  0  0  0  0  0  0  0
    0.6543   -2.0854    4.7871 C   0  0  0  0  0  0  0  0  0  0  0  0
    1.9530   -0.8534    0.7240 C   0  0  0  0  0  0  0  0  0  0  0  0
    0.4348    0.0003   -0.9256 C   0  0  2  0  0  0  0  0  0  0  0  0
    1.1805   -1.5858    6.1478 C   0  0  2  0  0  0  0  0  0  0  0  0
    0.8893   -1.0900    3.6426 C   0  0  1  0  0  0  0  0  0  0  0  0
   -0.2952   -0.8662    0.0951 C   0  0  1  0  0  0  0  0  0  0  0  0
    0.5985   -0.1850    6.4540 C   0  0  1  0  0  0  0  0  0  0  0  0
    2.7260   -1.5739    6.2687 C   0  0  1  0  0  0  0  0  0  0  0  0
    2.5770    0.2941    7.8041 C   0  0  2  0  0  0  0  0  0  0  0  0
    0.3045   -1.6272    2.3364 C   0  0  0  0  0  0  0  0  0  0  0  0
    1.1134    0.3315    7.7311 N   0  0  0  0  0  0  0  0  0  0  0  0
    3.1023   -1.0536    7.5879 N   0  0  0  0  0  0  0  0  0  0  0  0
    0.5840   -0.6959    1.2531 N   0  0  0  0  0  0  0  0  0  0  0  0
    3.2766   -2.9184    6.1138 N   0  0  0  0  0  0  0  0  0  0  0  0
    2.9889    0.7456    9.1314 N   0  0  0  0  0  0  0  0  0  0  0  0
   -2.1373    0.0407   -3.2168 H   0  0  0  0  0  0  0  0  0  0  0  0
   -1.7374    1.3254   -2.0817 H   0  0  0  0  0  0  0  0  0  0  0  0
   -3.4467   -0.0684   -1.0623 H   0  0  0  0  0  0  0  0  0  0  0  0
   -2.5446   -1.5389   -1.4137 H   0  0  0  0  0  0  0  0  0  0  0  0
   -0.0970   -1.1918   -2.6517 H   0  0  0  0  0  0  0  0  0  0  0  0
    0.3426    0.4737   -3.0328 H   0  0  0  0  0  0  0  0  0  0  0  0
   -0.8141    0.1922    4.0404 H   0  0  0  0  0  0  0  0  0  0  0  0
    0.4987    0.9928    3.1834 H   0  0  0  0  0  0  0  0  0  0  0  0
   -1.7743    0.6435    0.5883 H   0  0  0  0  0  0  0  0  0  0  0  0
   -2.2830   -1.0052    0.9551 H   0  0  0  0  0  0  0  0  0  0  0  0
    1.8727    1.0594    5.1784 H   0  0  0  0  0  0  0  0  0  0  0  0
    0.3020    1.7608    5.5366 H   0  0  0  0  0  0  0  0  0  0  0  0
    2.5780    0.3599   -0.9950 H   0  0  0  0  0  0  0  0  0  0  0  0
    2.1056   -1.3049   -1.3951 H   0  0  0  0  0  0  0  0  0  0  0  0
    1.1043   -3.0534    4.5374 H   0  0  0  0  0  0  0  0  0  0  0  0
   -0.4243   -2.2710    4.8829 H   0  0  0  0  0  0  0  0  0  0  0  0
    2.3000   -1.8895    0.7906 H   0  0  0  0  0  0  0  0  0  0  0  0
    2.6514   -0.2163    1.2715 H   0  0  0  0  0  0  0  0  0  0  0  0
    0.3692    1.0609   -0.6356 H   0  0  0  0  0  0  0  0  0  0  0  0
    0.7905   -2.2793    6.9096 H   0  0  0  0  0  0  0  0  0  0  0  0
    1.9690   -0.9642    3.4946 H   0  0  0  0  0  0  0  0  0  0  0  0
   -0.2866   -1.9154   -0.2282 H   0  0  0  0  0  0  0  0  0  0  0  0
   -0.4862   -0.3012    6.5825 H   0  0  0  0  0  0  0  0  0  0  0  0
    3.1739   -0.9438    5.4928 H   0  0  0  0  0  0  0  0  0  0  0  0
    3.0207    0.9848    7.0783 H   0  0  0  0  0  0  0  0  0  0  0  0
   -0.7655   -1.7317    2.4539 H   0  0  0  0  0  0  0  0  0  0  0  0
    0.7599   -2.5825    2.1155 H   0  0  0  0  0  0  0  0  0  0  0  0
    0.7928    1.2888    7.8718 H   0  0  0  0  0  0  0  0  0  0  0  0
    4.1189   -1.0217    7.6572 H   0  0  0  0  0  0  0  0  0  0  0  0
    4.1622   -3.1122    6.5277 H   0  0  0  0  0  0  0  0  0  0  0  0
    2.8563   -3.5218    5.4411 H   0  0  0  0  0  0  0  0  0  0  0  0
    2.4630    1.4742    9.5621 H   0  0  0  0  0  0  0  0  0  0  0  0
    3.8834    0.4609    9.4659 H   0  0  0  0  0  0  0  0  0  0  0  0
  1  2  1  0  0  0  0
  1  3  1  0  0  0  0
  1 23  1  0  0  0  0
  1 24  1  0  0  0  0
  2  5  1  0  0  0  0
  2 25  1  0  0  0  0
  2 26  1  0  0  0  0
  3 10  1  0  0  0  0
  3 27  1  0  0  0  0
  3 28  1  0  0  0  0
  4  6  1  0  0  0  0
  4 12  1  0  0  0  0
  4 29  1  0  0  0  0
  4 30  1  0  0  0  0
  5 13  1  0  0  0  0
  5 31  1  0  0  0  0
  5 32  1  0  0  0  0
  6 14  1  0  0  0  0
  6 33  1  0  0  0  0
  6 34  1  0  0  0  0
  7  9  1  0  0  0  0
  7 10  1  0  0  0  0
  7 35  1  0  0  0  0
  7 36  1  0  0  0  0
  8 11  1  0  0  0  0
  8 12  1  0  0  0  0
  8 37  1  0  0  0  0
  8 38  1  0  0  0  0
  9 20  1  0  0  0  0
  9 39  1  0  0  0  0
  9 40  1  0  0  0  0
 10 13  1  1  0  0  0
 10 41  1  0  0  0  0
 11 14  1  1  0  0  0
 11 42  1  0  0  0  0
 12 17  1  0  0  0  0
 12 43  1  6  0  0  0
 13 20  1  0  0  0  0
 13 44  1  6  0  0  0
 14 18  1  0  0  0  0
 14 45  1  1  0  0  0
 15 11  1  6  0  0  0
 15 19  1  0  0  0  0
 15 21  1  0  0  0  0
 15 46  1  0  0  0  0
 16 18  1  0  0  0  0
 16 19  1  0  0  0  0
 16 22  1  0  0  0  0
 16 47  1  6  0  0  0
 17 20  1  0  0  0  0
 17 48  1  0  0  0  0
 17 49  1  0  0  0  0
 18 50  1  0  0  0  0
 19 51  1  0  0  0  0
 21 52  1  0  0  0  0
 21 53  1  0  0  0  0
 22 54  1  0  0  0  0
 22 55  1  0  0  0  0
M  END
$$$$
DrugBank_4929
 OpenBabel01151909533D

 49 50  0  0  0  0  0  0  0  0999 V2000
   -0.7721   -2.1708   -6.0557 C   0  0  0  0  0  0  0  0  0  0  0  0
   -1.0046   -1.4928   -4.8591 C   0  0  0  0  0  0  0  0  0  0  0  0
   -0.1637   -3.4259   -6.0394 C   0  0  0  0  0  0  0  0  0  0  0  0
   -0.6286   -2.0698   -3.6461 C   0  0  0  0  0  0  0  0  0  0  0  0
    0.2124   -4.0029   -4.8264 C   0  0  0  0  0  0  0  0  0  0  0  0
    4.5121   -4.8657   -0.0114 C   0  0  0  0  0  0  0  0  0  0  0  0
    3.5782   -2.9270    1.0870 C   0  0  0  0  0  0  0  0  0  0  0  0
    5.7495   -4.6026    0.5762 C   0  0  0  0  0  0  0  0  0  0  0  0
    4.8156   -2.6639    1.6747 C   0  0  0  0  0  0  0  0  0  0  0  0
   -0.0201   -3.3249   -3.6298 C   0  0  0  0  0  0  0  0  0  0  0  0
    3.4265   -4.0279    0.2440 C   0  0  0  0  0  0  0  0  0  0  0  0
    5.9012   -3.5017    1.4193 C   0  0  0  0  0  0  0  0  0  0  0  0
    1.9302   -2.1133   -1.5988 C   0  0  0  0  0  0  0  0  0  0  0  0
    2.8251   -4.1355   -2.8622 C   0  0  0  0  0  0  0  0  0  0  0  0
    1.1306   -0.2869   -0.3168 C   0  0  0  0  0  0  0  0  0  0  0  0
    3.5218   -6.0162   -4.1256 C   0  0  0  0  0  0  0  0  0  0  0  0
    0.3880   -3.9508   -2.3154 C   0  0  0  0  0  0  0  0  0  0  0  0
    2.0814   -4.3140   -0.3951 C   0  0  0  0  0  0  0  0  0  0  0  0
    1.8306   -3.6481   -1.7839 C   0  0  0  0  0  0  0  0  0  0  0  0
    7.1676   -3.2325    2.0209 N   0  0  0  0  0  0  0  0  0  0  0  0
    2.6943   -1.3869   -2.2236 O   0  0  0  0  0  0  0  0  0  0  0  0
    3.5842   -3.3967   -3.4796 O   0  0  0  0  0  0  0  0  0  0  0  0
    7.1638   -0.8287    1.0450 O   0  0  0  0  0  0  0  0  0  0  0  0
    9.2096   -1.6716    2.2371 O   0  0  0  0  0  0  0  0  0  0  0  0
    8.6698   -2.4886   -0.0441 O   0  0  0  0  0  0  0  0  0  0  0  0
    1.0868   -1.6869   -0.6109 O   0  0  0  0  0  0  0  0  0  0  0  0
    2.6968   -5.4752   -3.0885 O   0  0  0  0  0  0  0  0  0  0  0  0
    8.0767   -1.9123    1.3616 S   0  0  0  0  0  0  0  0  0  0  0  0
   -1.0662   -1.7219   -7.0000 H   0  0  0  0  0  0  0  0  0  0  0  0
   -1.4794   -0.5160   -4.8715 H   0  0  0  0  0  0  0  0  0  0  0  0
    0.0164   -3.9545   -6.9707 H   0  0  0  0  0  0  0  0  0  0  0  0
   -0.8134   -1.5341   -2.7187 H   0  0  0  0  0  0  0  0  0  0  0  0
    0.6860   -4.9811   -4.8234 H   0  0  0  0  0  0  0  0  0  0  0  0
    4.4037   -5.7243   -0.6689 H   0  0  0  0  0  0  0  0  0  0  0  0
    2.7380   -2.2685    1.2910 H   0  0  0  0  0  0  0  0  0  0  0  0
    6.5891   -5.2618    0.3713 H   0  0  0  0  0  0  0  0  0  0  0  0
    4.9237   -1.8028    2.3292 H   0  0  0  0  0  0  0  0  0  0  0  0
    0.4210   -0.0593    0.4825 H   0  0  0  0  0  0  0  0  0  0  0  0
    0.8793    0.2831   -1.2149 H   0  0  0  0  0  0  0  0  0  0  0  0
    2.1397   -0.0235    0.0090 H   0  0  0  0  0  0  0  0  0  0  0  0
    3.3362   -7.0892   -4.2175 H   0  0  0  0  0  0  0  0  0  0  0  0
    4.5732   -5.8367   -3.8870 H   0  0  0  0  0  0  0  0  0  0  0  0
    3.2752   -5.5239   -5.0693 H   0  0  0  0  0  0  0  0  0  0  0  0
    0.2416   -5.0352   -2.4167 H   0  0  0  0  0  0  0  0  0  0  0  0
   -0.3427   -3.6475   -1.5510 H   0  0  0  0  0  0  0  0  0  0  0  0
    1.9670   -5.4036   -0.4524 H   0  0  0  0  0  0  0  0  0  0  0  0
    1.3014   -3.9893    0.3081 H   0  0  0  0  0  0  0  0  0  0  0  0
    7.7345   -4.0801    2.1952 H   0  0  0  0  0  0  0  0  0  0  0  0
    9.1803   -3.3292    0.0270 H   0  0  0  0  0  0  0  0  0  0  0  0
  1  2  2  0  0  0  0
  1  3  1  0  0  0  0
  1 29  1  0  0  0  0
  2  4  1  0  0  0  0
  2 30  1  0  0  0  0
  3  5  2  0  0  0  0
  3 31  1  0  0  0  0
  4 10  2  0  0  0  0
  4 32  1  0  0  0  0
  5 10  1  0  0  0  0
  5 33  1  0  0  0  0
  6  8  2  0  0  0  0
  6 11  1  0  0  0  0
  6 34  1  0  0  0  0
  7  9  1  0  0  0  0
  7 11  2  0  0  0  0
  7 35  1  0  0  0  0
  8 12  1  0  0  0  0
  8 36  1  0  0  0  0
  9 12  2  0  0  0  0
  9 37  1  0  0  0  0
 10 17  1  0  0  0  0
 11 18  1  0  0  0  0
 12 20  1  0  0  0  0
 13 19  1  0  0  0  0
 13 21  2  0  0  0  0
 13 26  1  0  0  0  0
 14 19  1  0  0  0  0
 14 22  2  0  0  0  0
 14 27  1  0  0  0  0
 15 26  1  0  0  0  0
 15 38  1  0  0  0  0
 15 39  1  0  0  0  0
 15 40  1  0  0  0  0
 16 27  1  0  0  0  0
 16 41  1  0  0  0  0
 16 42  1  0  0  0  0
 16 43  1  0  0  0  0
 17 19  1  0  0  0  0
 17 44  1  0  0  0  0
 17 45  1  0  0  0  0
 18 19  1  0  0  0  0
 18 46  1  0  0  0  0
 18 47  1  0  0  0  0
 20 28  1  0  0  0  0
 20 48  1  0  0  0  0
 23 28  2  0  0  0  0
 24 28  2  0  0  0  0
 25 28  1  0  0  0  0
 25 49  1  0  0  0  0
M  END
$$$$
DrugBank_4933
 OpenBabel01151909533D

 59 62  0  0  1  0  0  0  0  0999 V2000
    2.7432    1.7633    2.2048 C   0  0  0  0  0  0  0  0  0  0  0  0
    3.2111    3.0605    1.9956 C   0  0  0  0  0  0  0  0  0  0  0  0
    1.1402    3.9482    2.8675 C   0  0  0  0  0  0  0  0  0  0  0  0
    1.4737    1.5585    2.7454 C   0  0  0  0  0  0  0  0  0  0  0  0
    0.6722    2.6509    3.0768 C   0  0  0  0  0  0  0  0  0  0  0  0
    2.4097    4.1530    2.3269 C   0  0  0  0  0  0  0  0  0  0  0  0
   -0.7068   -3.7484    0.1299 C   0  0  0  0  0  0  0  0  0  0  0  0
   -2.4693   -2.8099    5.3827 C   0  0  0  0  0  0  0  0  0  0  0  0
   -2.8621   -4.2545    5.2460 C   0  0  0  0  0  0  0  0  0  0  0  0
    2.3596   -5.0974   -1.3855 C   0  0  0  0  0  0  0  0  0  0  0  0
    0.9358   -5.3095   -0.8917 C   0  0  0  0  0  0  0  0  0  0  0  0
    1.7833   -3.2483    0.0155 C   0  0  0  0  0  0  0  0  0  0  0  0
    0.9700    0.1505    2.9714 C   0  0  2  0  0  0  0  0  0  0  0  0
   -1.7036   -3.7124    4.4552 C   0  0  0  0  0  0  0  0  0  0  0  0
    2.9417   -4.1683   -0.3323 C   0  0  1  0  0  0  0  0  0  0  0  0
   -0.8822   -1.1818    3.0060 C   0  0  2  0  0  0  0  0  0  0  0  0
    3.8181    6.2016    3.5812 C   0  0  0  0  0  0  0  0  0  0  0  0
   -1.8194   -3.5378    2.9462 C   0  0  0  0  0  0  0  0  0  0  0  0
   -0.8892   -2.4230    0.8250 C   0  0  2  0  0  0  0  0  0  0  0  0
   -0.7808   -2.5565    2.3579 C   0  0  1  0  0  0  0  0  0  0  0  0
   -0.2348   -0.1508    2.2070 N   0  0  0  0  0  0  0  0  0  0  0  0
    0.6650   -0.1237    4.3775 N   0  0  0  0  0  0  0  0  0  0  0  0
    0.5935   -4.0640   -0.2204 N   0  0  0  0  0  0  0  0  0  0  0  0
   -2.1461   -1.8941    0.3720 N   0  0  0  0  0  0  0  0  0  0  0  0
   -1.6762   -4.4767   -0.0892 O   0  0  0  0  0  0  0  0  0  0  0  0
    3.9985    5.7257    1.0091 O   0  0  0  0  0  0  0  0  0  0  0  0
    1.8551    6.6739    1.9327 O   0  0  0  0  0  0  0  0  0  0  0  0
   -0.2759   -1.2444    4.3013 O   0  0  0  0  0  0  0  0  0  0  0  0
   -0.5493    2.4642    3.5957 F   0  0  0  0  0  0  0  0  0  0  0  0
    3.2598   -4.9017    0.7696 F   0  0  0  0  0  0  0  0  0  0  0  0
    2.9950    5.7763    2.0630 S   0  0  0  0  0  0  0  0  0  0  0  0
    3.3755    0.9185    1.9446 H   0  0  0  0  0  0  0  0  0  0  0  0
    4.2015    3.2088    1.5738 H   0  0  0  0  0  0  0  0  0  0  0  0
    0.5074    4.7919    3.1291 H   0  0  0  0  0  0  0  0  0  0  0  0
   -3.1301   -2.0661    4.9549 H   0  0  0  0  0  0  0  0  0  0  0  0
   -1.9849   -2.5041    6.3019 H   0  0  0  0  0  0  0  0  0  0  0  0
   -2.6412   -4.9171    6.0738 H   0  0  0  0  0  0  0  0  0  0  0  0
   -3.7857   -4.4778    4.7265 H   0  0  0  0  0  0  0  0  0  0  0  0
    2.9035   -6.0416   -1.4734 H   0  0  0  0  0  0  0  0  0  0  0  0
    2.3467   -4.5974   -2.3610 H   0  0  0  0  0  0  0  0  0  0  0  0
    0.2287   -5.5266   -1.6978 H   0  0  0  0  0  0  0  0  0  0  0  0
    0.8826   -6.1131   -0.1488 H   0  0  0  0  0  0  0  0  0  0  0  0
    1.8106   -2.9063    1.0533 H   0  0  0  0  0  0  0  0  0  0  0  0
    1.7327   -2.3890   -0.6609 H   0  0  0  0  0  0  0  0  0  0  0  0
    1.7730   -0.5338    2.6366 H   0  0  0  0  0  0  0  0  0  0  0  0
   -0.7065   -4.0120    4.7547 H   0  0  0  0  0  0  0  0  0  0  0  0
    3.8392   -3.6364   -0.6568 H   0  0  0  0  0  0  0  0  0  0  0  0
   -1.9478   -0.9264    3.1542 H   0  0  0  0  0  0  0  0  0  0  0  0
    4.2130    7.2144    3.4869 H   0  0  0  0  0  0  0  0  0  0  0  0
    3.0915    6.1485    4.3934 H   0  0  0  0  0  0  0  0  0  0  0  0
    4.6279    5.4891    3.7451 H   0  0  0  0  0  0  0  0  0  0  0  0
   -2.8313   -3.1759    2.7311 H   0  0  0  0  0  0  0  0  0  0  0  0
   -1.7268   -4.5218    2.4712 H   0  0  0  0  0  0  0  0  0  0  0  0
   -0.1042   -1.7580    0.4472 H   0  0  0  0  0  0  0  0  0  0  0  0
    0.2197   -2.9507    2.5847 H   0  0  0  0  0  0  0  0  0  0  0  0
   -0.8401    0.6714    2.2172 H   0  0  0  0  0  0  0  0  0  0  0  0
    0.0687    0.6154    4.7491 H   0  0  0  0  0  0  0  0  0  0  0  0
   -2.4687   -2.1181   -0.5566 H   0  0  0  0  0  0  0  0  0  0  0  0
   -2.5864   -1.1538    0.8960 H   0  0  0  0  0  0  0  0  0  0  0  0
  1  2  2  0  0  0  0
  1  4  1  0  0  0  0
  1 32  1  0  0  0  0
  2  6  1  0  0  0  0
  2 33  1  0  0  0  0
  3  5  1  0  0  0  0
  3  6  2  0  0  0  0
  3 34  1  0  0  0  0
  4  5  2  0  0  0  0
  4 13  1  0  0  0  0
  5 29  1  0  0  0  0
  6 31  1  0  0  0  0
  7 19  1  0  0  0  0
  7 23  1  0  0  0  0
  7 25  2  0  0  0  0
  8  9  1  0  0  0  0
  8 14  1  0  0  0  0
  8 35  1  0  0  0  0
  8 36  1  0  0  0  0
  9 14  1  0  0  0  0
  9 37  1  0  0  0  0
  9 38  1  0  0  0  0
 10 11  1  0  0  0  0
 10 15  1  0  0  0  0
 10 39  1  0  0  0  0
 10 40  1  0  0  0  0
 11 23  1  0  0  0  0
 11 41  1  0  0  0  0
 11 42  1  0  0  0  0
 12 15  1  0  0  0  0
 12 23  1  0  0  0  0
 12 43  1  0  0  0  0
 12 44  1  0  0  0  0
 13 21  1  0  0  0  0
 13 22  1  0  0  0  0
 13 45  1  6  0  0  0
 14 18  1  0  0  0  0
 14 46  1  0  0  0  0
 15 30  1  0  0  0  0
 15 47  1  6  0  0  0
 16 20  1  0  0  0  0
 16 21  1  0  0  0  0
 16 28  1  0  0  0  0
 16 48  1  1  0  0  0
 17 31  1  0  0  0  0
 17 49  1  0  0  0  0
 17 50  1  0  0  0  0
 17 51  1  0  0  0  0
 18 20  1  0  0  0  0
 18 52  1  0  0  0  0
 18 53  1  0  0  0  0
 19 20  1  0  0  0  0
 19 24  1  0  0  0  0
 19 54  1  6  0  0  0
 20 55  1  1  0  0  0
 21 56  1  0  0  0  0
 22 28  1  0  0  0  0
 22 57  1  0  0  0  0
 24 58  1  0  0  0  0
 24 59  1  0  0  0  0
 26 31  2  0  0  0  0
 27 31  2  0  0  0  0
M  END
$$$$
DrugBank_2309
 OpenBabel01151909533D

 65 66  0  0  1  0  0  0  0  0999 V2000
    3.1436    4.9777    3.8302 C   0  0  0  0  0  0  0  0  0  0  0  0
    3.6870    1.4948   -2.1774 C   0  0  0  0  0  0  0  0  0  0  0  0
    1.4028    4.4858    2.0826 C   0  0  0  0  0  0  0  0  0  0  0  0
    2.8668    4.7901    2.3776 C   0  0  1  0  0  0  0  0  0  0  0  0
    1.3947    2.4061   -1.8665 C   0  0  1  0  0  0  0  0  0  0  0  0
    1.1847    5.0685    0.6949 C   0  0  1  0  0  0  0  0  0  0  0  0
    0.4058    1.3450   -2.3724 C   0  0  1  0  0  0  0  0  0  0  0  0
   -0.3426    0.6470   -1.2278 C   0  0  2  0  0  0  0  0  0  0  0  0
    1.9460    6.3872    0.7602 C   0  0  2  0  0  0  0  0  0  0  0  0
   -0.8486    1.6527   -0.1791 C   0  0  1  0  0  0  0  0  0  0  0  0
    0.7570    3.2937   -0.7884 C   0  0  1  0  0  0  0  0  0  0  0  0
    4.8212    0.8433   -1.4580 C   0  0  0  0  0  0  0  0  0  0  0  0
    2.3981    6.9661   -0.5667 C   0  0  0  0  0  0  0  0  0  0  0  0
   -1.4391    0.9802    1.0553 C   0  0  0  0  0  0  0  0  0  0  0  0
    3.1771    3.7967    6.0180 C   0  0  0  0  0  0  0  0  0  0  0  0
    1.9198    4.1352    6.7956 C   0  0  0  0  0  0  0  0  0  0  0  0
    2.9622    3.8374    4.5893 N   0  0  0  0  0  0  0  0  0  0  0  0
    2.6007    1.7741   -1.3731 N   0  0  0  0  0  0  0  0  0  0  0  0
    3.1501    6.0584    1.6092 N   0  3  0  0  0  0  0  0  0  0  0  0
    3.4986    6.0764    4.2406 O   0  0  0  0  0  0  0  0  0  0  0  0
    3.7872    1.7301   -3.3758 O   0  0  0  0  0  0  0  0  0  0  0  0
    0.9756    1.6875    6.7537 O   0  0  0  0  0  0  0  0  0  0  0  0
    0.0604    3.3821    5.1078 O   0  0  0  0  0  0  0  0  0  0  0  0
   -0.4867   -2.4122   -1.3955 O   0  0  0  0  0  0  0  0  0  0  0  0
    1.5793   -1.5500   -2.5421 O   0  0  0  0  0  0  0  0  0  0  0  0
    0.2225    2.4939    0.2661 O   0  0  0  0  0  0  0  0  0  0  0  0
   -0.5322    1.9565   -3.2582 O   0  0  0  0  0  0  0  0  0  0  0  0
    3.0760    8.1894   -0.3275 O   0  0  0  0  0  0  0  0  0  0  0  0
   -2.2625    1.9153    1.7288 O   0  0  0  0  0  0  0  0  0  0  0  0
   -0.4569    3.5847    7.5531 O   0  0  0  0  0  0  0  0  0  0  0  0
    1.7224   -2.5403   -0.2570 O   0  0  0  0  0  0  0  0  0  0  0  0
    1.7343    4.2053   -0.2925 O   0  0  0  0  0  0  0  0  0  0  0  0
    0.5521   -0.2884   -0.6269 O   0  0  0  0  0  0  0  0  0  0  0  0
    0.5834    3.0443    6.4190 S   0  0  0  0  0  0  0  0  0  0  0  0
    0.7968   -1.7381   -1.3346 S   0  0  0  0  0  0  0  0  0  0  0  0
    1.2159    3.4073    2.1186 H   0  0  0  0  0  0  0  0  0  0  0  0
    0.7408    4.9713    2.8100 H   0  0  0  0  0  0  0  0  0  0  0  0
    3.5343    4.0217    1.9660 H   0  0  0  0  0  0  0  0  0  0  0  0
    1.7208    3.0471   -2.6948 H   0  0  0  0  0  0  0  0  0  0  0  0
    0.1237    5.2138    0.4723 H   0  0  0  0  0  0  0  0  0  0  0  0
    0.9614    0.5857   -2.9655 H   0  0  0  0  0  0  0  0  0  0  0  0
   -1.1927    0.0816   -1.6285 H   0  0  0  0  0  0  0  0  0  0  0  0
    1.3740    7.1254    1.3310 H   0  0  0  0  0  0  0  0  0  0  0  0
   -1.6255    2.2866   -0.6238 H   0  0  0  0  0  0  0  0  0  0  0  0
   -0.0498    3.8923   -1.2281 H   0  0  0  0  0  0  0  0  0  0  0  0
    4.7487   -0.2561   -1.4667 H   0  0  0  0  0  0  0  0  0  0  0  0
    5.7970    1.0744   -1.9146 H   0  0  0  0  0  0  0  0  0  0  0  0
    4.9260    1.1183   -0.3962 H   0  0  0  0  0  0  0  0  0  0  0  0
    1.5369    7.1586   -1.2118 H   0  0  0  0  0  0  0  0  0  0  0  0
    3.0796    6.2762   -1.0713 H   0  0  0  0  0  0  0  0  0  0  0  0
   -0.6397    0.6585    1.7234 H   0  0  0  0  0  0  0  0  0  0  0  0
   -2.0396    0.1193    0.7602 H   0  0  0  0  0  0  0  0  0  0  0  0
    3.9916    4.4901    6.2494 H   0  0  0  0  0  0  0  0  0  0  0  0
    3.5082    2.7824    6.2609 H   0  0  0  0  0  0  0  0  0  0  0  0
    1.5740    5.1415    6.5412 H   0  0  0  0  0  0  0  0  0  0  0  0
    2.0831    4.0806    7.8762 H   0  0  0  0  0  0  0  0  0  0  0  0
    2.6637    2.9872    4.1209 H   0  0  0  0  0  0  0  0  0  0  0  0
    2.6493    1.5251   -0.3912 H   0  0  0  0  0  0  0  0  0  0  0  0
    3.3633    6.8465    2.2366 H   0  0  0  0  0  0  0  0  0  0  0  0
    3.9879    5.9216    1.0267 H   0  0  0  0  0  0  0  0  0  0  0  0
   -1.1310    1.2528   -3.5492 H   0  0  0  0  0  0  0  0  0  0  0  0
    3.3518    8.5336   -1.1932 H   0  0  0  0  0  0  0  0  0  0  0  0
   -2.6263    1.4644    2.5097 H   0  0  0  0  0  0  0  0  0  0  0  0
   -0.1950    3.4058    8.4868 H   0  0  0  0  0  0  0  0  0  0  0  0
    2.5593   -2.0910    0.0055 H   0  0  0  0  0  0  0  0  0  0  0  0
  1  4  1  0  0  0  0
  1 17  1  0  0  0  0
  1 20  2  0  0  0  0
  2 12  1  0  0  0  0
  2 18  1  0  0  0  0
  2 21  2  0  0  0  0
  3  4  1  0  0  0  0
  3  6  1  0  0  0  0
  3 36  1  0  0  0  0
  3 37  1  0  0  0  0
  4 19  1  0  0  0  0
  4 38  1  6  0  0  0
  5  7  1  6  0  0  0
  5 18  1  0  0  0  0
  5 39  1  0  0  0  0
  6  9  1  6  0  0  0
  6 32  1  0  0  0  0
  6 40  1  0  0  0  0
  7  8  1  1  0  0  0
  7 27  1  0  0  0  0
  7 41  1  0  0  0  0
  8 10  1  1  0  0  0
  8 33  1  0  0  0  0
  8 42  1  0  0  0  0
  9 13  1  0  0  0  0
  9 19  1  0  0  0  0
  9 43  1  1  0  0  0
 10 14  1  0  0  0  0
 10 26  1  0  0  0  0
 10 44  1  6  0  0  0
 11  5  1  6  0  0  0
 11 26  1  0  0  0  0
 11 32  1  0  0  0  0
 11 45  1  0  0  0  0
 12 46  1  0  0  0  0
 12 47  1  0  0  0  0
 12 48  1  0  0  0  0
 13 28  1  0  0  0  0
 13 49  1  0  0  0  0
 13 50  1  0  0  0  0
 14 29  1  0  0  0  0
 14 51  1  0  0  0  0
 14 52  1  0  0  0  0
 15 16  1  0  0  0  0
 15 17  1  0  0  0  0
 15 53  1  0  0  0  0
 15 54  1  0  0  0  0
 16 34  1  0  0  0  0
 16 55  1  0  0  0  0
 16 56  1  0  0  0  0
 17 57  1  0  0  0  0
 18 58  1  0  0  0  0
 19 59  1  0  0  0  0
 19 60  1  0  0  0  0
 22 34  2  0  0  0  0
 23 34  2  0  0  0  0
 24 35  2  0  0  0  0
 25 35  2  0  0  0  0
 27 61  1  0  0  0  0
 28 62  1  0  0  0  0
 29 63  1  0  0  0  0
 30 34  1  0  0  0  0
 30 64  1  0  0  0  0
 31 35  1  0  0  0  0
 31 65  1  0  0  0  0
 33 35  1  0  0  0  0
M  CHG  1  19   1
M  END
$$$$
DrugBank_4959
 OpenBabel01151909533D

 65 67  0  0  1  0  0  0  0  0999 V2000
    1.2026   -2.6179    0.2416 C   0  0  0  0  0  0  0  0  0  0  0  0
   -0.1855   -2.7295    0.1888 C   0  0  0  0  0  0  0  0  0  0  0  0
    1.8036   -1.8203    1.2141 C   0  0  0  0  0  0  0  0  0  0  0  0
   -0.3725   -1.2423    2.0829 C   0  0  0  0  0  0  0  0  0  0  0  0
   -0.3927    1.4303   -1.4468 C   0  0  0  0  0  0  0  0  0  0  0  0
    1.3147    1.0302   -3.0865 C   0  0  0  0  0  0  0  0  0  0  0  0
   -0.9881   -2.0367    1.1025 C   0  0  0  0  0  0  0  0  0  0  0  0
    1.0232   -1.1254    2.1483 C   0  0  0  0  0  0  0  0  0  0  0  0
    0.9654    1.3525   -1.7745 C   0  0  0  0  0  0  0  0  0  0  0  0
   -1.3467    1.1511   -2.4245 C   0  0  0  0  0  0  0  0  0  0  0  0
    0.3008    0.7813   -3.9968 C   0  0  0  0  0  0  0  0  0  0  0  0
    2.4638    1.5212    1.5816 C   0  0  0  0  0  0  0  0  0  0  0  0
   -2.4928   -2.1272    1.0319 C   0  0  0  0  0  0  0  0  0  0  0  0
    1.6877   -0.2715    3.2059 C   0  0  0  0  0  0  0  0  0  0  0  0
    2.0502    1.6531   -0.7715 C   0  0  0  0  0  0  0  0  0  0  0  0
   -2.8147    1.1921   -2.0846 C   0  0  0  0  0  0  0  0  0  0  0  0
   -3.1278   -1.0766    0.1065 C   0  0  0  0  0  0  0  0  0  0  0  0
   -3.5177   -0.1617   -2.2558 C   0  0  0  0  0  0  0  0  0  0  0  0
   -2.9469   -1.3248   -1.4085 C   0  0  2  0  0  0  0  0  0  0  0  0
    1.7657    1.2478    2.9192 C   0  0  2  0  0  0  0  0  0  0  0  0
   -3.6276   -2.6284   -1.8474 C   0  0  0  0  0  0  0  0  0  0  0  0
    0.4014    1.9480    3.0078 C   0  0  0  0  0  0  0  0  0  0  0  0
    0.1175    1.3466   -6.4202 C   0  0  0  0  0  0  0  0  0  0  0  0
   -0.8630   -1.6602   -6.1923 C   0  0  0  0  0  0  0  0  0  0  0  0
   -1.0157    0.8323   -3.6988 N   0  0  0  0  0  0  0  0  0  0  0  0
    2.6267    1.8443    3.9566 N   0  0  0  0  0  0  0  0  0  0  0  0
    0.6254    0.4458   -5.3461 N   0  0  0  0  0  0  0  0  0  0  0  0
    3.6644    1.7220    1.4445 O   0  0  0  0  0  0  0  0  0  0  0  0
    1.1051   -1.9712   -4.5183 O   0  0  0  0  0  0  0  0  0  0  0  0
    1.6341   -1.3837   -6.9058 O   0  0  0  0  0  0  0  0  0  0  0  0
    1.5587    1.4563    0.5633 O   0  0  0  0  0  0  0  0  0  0  0  0
    0.8012   -1.2290   -5.7281 S   0  0  0  0  0  0  0  0  0  0  0  0
    1.8174   -3.1537   -0.4759 H   0  0  0  0  0  0  0  0  0  0  0  0
   -0.6367   -3.3574   -0.5751 H   0  0  0  0  0  0  0  0  0  0  0  0
    2.8879   -1.7448    1.2384 H   0  0  0  0  0  0  0  0  0  0  0  0
   -0.9895   -0.7098    2.8037 H   0  0  0  0  0  0  0  0  0  0  0  0
   -0.7085    1.6956   -0.4423 H   0  0  0  0  0  0  0  0  0  0  0  0
    2.3574    0.9768   -3.3856 H   0  0  0  0  0  0  0  0  0  0  0  0
   -2.7933   -3.1440    0.7575 H   0  0  0  0  0  0  0  0  0  0  0  0
   -2.8935   -1.9797    2.0438 H   0  0  0  0  0  0  0  0  0  0  0  0
    1.1729   -0.4465    4.1613 H   0  0  0  0  0  0  0  0  0  0  0  0
    2.7031   -0.6667    3.3572 H   0  0  0  0  0  0  0  0  0  0  0  0
    2.9017    0.9827   -0.9378 H   0  0  0  0  0  0  0  0  0  0  0  0
    2.3677    2.6958   -0.8839 H   0  0  0  0  0  0  0  0  0  0  0  0
   -2.9687    1.5752   -1.0699 H   0  0  0  0  0  0  0  0  0  0  0  0
   -3.2905    1.9222   -2.7516 H   0  0  0  0  0  0  0  0  0  0  0  0
   -4.2034   -1.0389    0.3244 H   0  0  0  0  0  0  0  0  0  0  0  0
   -2.7258   -0.0936    0.3762 H   0  0  0  0  0  0  0  0  0  0  0  0
   -4.5819   -0.0307   -2.0203 H   0  0  0  0  0  0  0  0  0  0  0  0
   -3.4727   -0.4418   -3.3168 H   0  0  0  0  0  0  0  0  0  0  0  0
   -1.8807   -1.4203   -1.6372 H   0  0  0  0  0  0  0  0  0  0  0  0
   -4.6915   -2.5705   -1.6352 H   0  0  0  0  0  0  0  0  0  0  0  0
   -3.1949   -3.4636   -1.3039 H   0  0  0  0  0  0  0  0  0  0  0  0
   -3.4783   -2.7735   -2.9137 H   0  0  0  0  0  0  0  0  0  0  0  0
   -0.0560    1.7279    3.9681 H   0  0  0  0  0  0  0  0  0  0  0  0
   -0.2413    1.5893    2.2092 H   0  0  0  0  0  0  0  0  0  0  0  0
    0.5389    3.0209    2.9089 H   0  0  0  0  0  0  0  0  0  0  0  0
    0.4344    0.9792   -7.3998 H   0  0  0  0  0  0  0  0  0  0  0  0
    0.5077    2.3584   -6.2808 H   0  0  0  0  0  0  0  0  0  0  0  0
   -0.9748    1.3858   -6.3956 H   0  0  0  0  0  0  0  0  0  0  0  0
   -0.8825   -2.7174   -6.4613 H   0  0  0  0  0  0  0  0  0  0  0  0
   -1.5182   -1.4701   -5.3409 H   0  0  0  0  0  0  0  0  0  0  0  0
   -1.1536   -1.0434   -7.0440 H   0  0  0  0  0  0  0  0  0  0  0  0
    2.5237    2.8138    4.1317 H   0  0  0  0  0  0  0  0  0  0  0  0
    3.3933    1.3050    4.2773 H   0  0  0  0  0  0  0  0  0  0  0  0
  1  2  2  0  0  0  0
  1  3  1  0  0  0  0
  1 33  1  0  0  0  0
  2  7  1  0  0  0  0
  2 34  1  0  0  0  0
  3  8  2  0  0  0  0
  3 35  1  0  0  0  0
  4  7  2  0  0  0  0
  4  8  1  0  0  0  0
  4 36  1  0  0  0  0
  5  9  2  0  0  0  0
  5 10  1  0  0  0  0
  5 37  1  0  0  0  0
  6  9  1  0  0  0  0
  6 11  2  0  0  0  0
  6 38  1  0  0  0  0
  7 13  1  0  0  0  0
  8 14  1  0  0  0  0
  9 15  1  0  0  0  0
 10 16  1  0  0  0  0
 10 25  2  0  0  0  0
 11 25  1  0  0  0  0
 11 27  1  0  0  0  0
 12 20  1  0  0  0  0
 12 28  2  0  0  0  0
 12 31  1  0  0  0  0
 13 17  1  0  0  0  0
 13 39  1  0  0  0  0
 13 40  1  0  0  0  0
 14 20  1  0  0  0  0
 14 41  1  0  0  0  0
 14 42  1  0  0  0  0
 15 31  1  0  0  0  0
 15 43  1  0  0  0  0
 15 44  1  0  0  0  0
 16 18  1  0  0  0  0
 16 45  1  0  0  0  0
 16 46  1  0  0  0  0
 17 19  1  0  0  0  0
 17 47  1  0  0  0  0
 17 48  1  0  0  0  0
 18 19  1  0  0  0  0
 18 49  1  0  0  0  0
 18 50  1  0  0  0  0
 19 21  1  0  0  0  0
 19 51  1  6  0  0  0
 20 22  1  1  0  0  0
 20 26  1  0  0  0  0
 21 52  1  0  0  0  0
 21 53  1  0  0  0  0
 21 54  1  0  0  0  0
 22 55  1  0  0  0  0
 22 56  1  0  0  0  0
 22 57  1  0  0  0  0
 23 27  1  0  0  0  0
 23 58  1  0  0  0  0
 23 59  1  0  0  0  0
 23 60  1  0  0  0  0
 24 32  1  0  0  0  0
 24 61  1  0  0  0  0
 24 62  1  0  0  0  0
 24 63  1  0  0  0  0
 26 64  1  0  0  0  0
 26 65  1  0  0  0  0
 27 32  1  0  0  0  0
 29 32  2  0  0  0  0
 30 32  2  0  0  0  0
M  END
$$$$
DrugBank_4964
 OpenBabel01151909533D

 45 48  0  0  0  0  0  0  0  0999 V2000
    2.4576    2.7510    7.2697 C   0  0  0  0  0  0  0  0  0  0  0  0
    2.7900    1.6658    8.0805 C   0  0  0  0  0  0  0  0  0  0  0  0
    0.0469    6.7825    2.7722 C   0  0  0  0  0  0  0  0  0  0  0  0
    0.5330    1.5455    6.4452 C   0  0  0  0  0  0  0  0  0  0  0  0
    0.3509    5.1275    1.0343 C   0  0  0  0  0  0  0  0  0  0  0  0
    1.3291    2.6909    6.4521 C   0  0  0  0  0  0  0  0  0  0  0  0
    0.3576    5.8174    3.7334 C   0  0  0  0  0  0  0  0  0  0  0  0
    0.0446    6.4327    1.4213 C   0  0  0  0  0  0  0  0  0  0  0  0
    0.6607    4.1667    1.9971 C   0  0  0  0  0  0  0  0  0  0  0  0
    0.6633    4.5139    3.3484 C   0  0  0  0  0  0  0  0  0  0  0  0
    1.9940    0.5204    8.0737 C   0  0  0  0  0  0  0  0  0  0  0  0
    0.8654    0.4602    7.2560 C   0  0  0  0  0  0  0  0  0  0  0  0
    0.9766    3.8386    5.5976 C   0  0  0  0  0  0  0  0  0  0  0  0
    0.3697    6.1577    5.1644 C   0  0  0  0  0  0  0  0  0  0  0  0
    0.7091    5.0580    6.0994 C   0  0  0  0  0  0  0  0  0  0  0  0
    2.0543    1.0633    0.3474 C   0  0  0  0  0  0  0  0  0  0  0  0
    2.1308    2.5551    0.6626 C   0  0  0  0  0  0  0  0  0  0  0  0
    0.5964    0.7760    0.0294 C   0  0  0  0  0  0  0  0  0  0  0  0
   -0.2847    7.4571    0.3882 C   0  0  0  0  0  0  0  0  0  0  0  0
    0.9763    2.8150    1.5704 N   0  0  0  0  0  0  0  0  0  0  0  0
    0.1153    7.2867    5.5621 O   0  0  0  0  0  0  0  0  0  0  0  0
   -0.6170    0.9148    2.3716 O   0  0  0  0  0  0  0  0  0  0  0  0
   -1.3870    2.4309    0.4898 O   0  0  0  0  0  0  0  0  0  0  0  0
    0.9757    3.5270    4.2472 O   0  0  0  0  0  0  0  0  0  0  0  0
    2.3296   -0.5325    8.8701 O   0  0  0  0  0  0  0  0  0  0  0  0
    0.0813   -0.6537    7.2407 O   0  0  0  0  0  0  0  0  0  0  0  0
    0.7507    5.3428    7.4472 O   0  0  0  0  0  0  0  0  0  0  0  0
   -0.3397    1.7343    1.2097 S   0  0  0  0  0  0  0  0  0  0  0  0
    3.0870    3.6374    7.2866 H   0  0  0  0  0  0  0  0  0  0  0  0
    3.6706    1.7190    8.7150 H   0  0  0  0  0  0  0  0  0  0  0  0
   -0.1929    7.8021    3.0630 H   0  0  0  0  0  0  0  0  0  0  0  0
   -0.3491    1.4903    5.8110 H   0  0  0  0  0  0  0  0  0  0  0  0
    0.3475    4.8611   -0.0204 H   0  0  0  0  0  0  0  0  0  0  0  0
    2.7157    0.7859   -0.4786 H   0  0  0  0  0  0  0  0  0  0  0  0
    2.3576    0.4862    1.2298 H   0  0  0  0  0  0  0  0  0  0  0  0
    3.0713    2.7965    1.1666 H   0  0  0  0  0  0  0  0  0  0  0  0
    2.0460    3.1501   -0.2538 H   0  0  0  0  0  0  0  0  0  0  0  0
    0.3371    1.1308   -0.9726 H   0  0  0  0  0  0  0  0  0  0  0  0
    0.3436   -0.2813    0.1307 H   0  0  0  0  0  0  0  0  0  0  0  0
    0.6256    7.9713    0.0568 H   0  0  0  0  0  0  0  0  0  0  0  0
   -0.7646    7.0001   -0.4868 H   0  0  0  0  0  0  0  0  0  0  0  0
   -0.9850    8.2064    0.7795 H   0  0  0  0  0  0  0  0  0  0  0  0
    1.6893   -1.2530    8.7609 H   0  0  0  0  0  0  0  0  0  0  0  0
   -0.6573   -0.5351    6.6231 H   0  0  0  0  0  0  0  0  0  0  0  0
    0.5279    6.2682    7.5943 H   0  0  0  0  0  0  0  0  0  0  0  0
  1  2  2  0  0  0  0
  1  6  1  0  0  0  0
  1 29  1  0  0  0  0
  2 11  1  0  0  0  0
  2 30  1  0  0  0  0
  3  7  2  0  0  0  0
  3  8  1  0  0  0  0
  3 31  1  0  0  0  0
  4  6  2  0  0  0  0
  4 12  1  0  0  0  0
  4 32  1  0  0  0  0
  5  8  2  0  0  0  0
  5  9  1  0  0  0  0
  5 33  1  0  0  0  0
  6 13  1  0  0  0  0
  7 10  1  0  0  0  0
  7 14  1  0  0  0  0
  8 19  1  0  0  0  0
  9 10  2  0  0  0  0
  9 20  1  0  0  0  0
 10 24  1  0  0  0  0
 11 12  2  0  0  0  0
 11 25  1  0  0  0  0
 12 26  1  0  0  0  0
 13 15  2  0  0  0  0
 13 24  1  0  0  0  0
 14 15  1  0  0  0  0
 14 21  2  0  0  0  0
 15 27  1  0  0  0  0
 16 17  1  0  0  0  0
 16 18  1  0  0  0  0
 16 34  1  0  0  0  0
 16 35  1  0  0  0  0
 17 20  1  0  0  0  0
 17 36  1  0  0  0  0
 17 37  1  0  0  0  0
 18 28  1  0  0  0  0
 18 38  1  0  0  0  0
 18 39  1  0  0  0  0
 19 40  1  0  0  0  0
 19 41  1  0  0  0  0
 19 42  1  0  0  0  0
 20 28  1  0  0  0  0
 22 28  2  0  0  0  0
 23 28  2  0  0  0  0
 25 43  1  0  0  0  0
 26 44  1  0  0  0  0
 27 45  1  0  0  0  0
M  END
$$$$
DrugBank_2331
 OpenBabel01151909533D

 39 38  0  0  0  0  0  0  0  0999 V2000
    2.1446   -0.4510    0.5753 C   0  0  0  0  0  0  0  0  0  0  0  0
    1.7460   -1.5252    1.5938 C   0  0  0  0  0  0  0  0  0  0  0  0
    1.6590    0.9501    0.9536 C   0  0  0  0  0  0  0  0  0  0  0  0
    2.1535   -2.9596    1.2380 C   0  0  0  0  0  0  0  0  0  0  0  0
    2.0490    2.0247   -0.0670 C   0  0  0  0  0  0  0  0  0  0  0  0
    1.7470   -3.9847    2.2994 C   0  0  0  0  0  0  0  0  0  0  0  0
    1.6412    3.4587    0.2865 C   0  0  0  0  0  0  0  0  0  0  0  0
    2.0844   -5.4279    1.9103 C   0  0  0  0  0  0  0  0  0  0  0  0
    2.0774    4.4892   -0.7531 C   0  0  0  0  0  0  0  0  0  0  0  0
    1.6467   -6.5039    2.9089 C   0  0  0  0  0  0  0  0  0  0  0  0
    1.6918    5.9038   -0.3395 C   0  0  0  0  0  0  0  0  0  0  0  0
    1.9806   -7.9138    2.4508 C   0  0  0  0  0  0  0  0  0  0  0  0
    2.1132    6.8273   -1.3347 O   0  0  0  0  0  0  0  0  0  0  0  0
    1.4324   -9.1956    3.8113 Br  0  0  0  0  0  0  0  0  0  0  0  0
    3.2393   -0.4411    0.5029 H   0  0  0  0  0  0  0  0  0  0  0  0
    1.7729   -0.7305   -0.4158 H   0  0  0  0  0  0  0  0  0  0  0  0
    2.1847   -1.2624    2.5645 H   0  0  0  0  0  0  0  0  0  0  0  0
    0.6578   -1.4978    1.7312 H   0  0  0  0  0  0  0  0  0  0  0  0
    2.0926    1.2284    1.9224 H   0  0  0  0  0  0  0  0  0  0  0  0
    0.5730    0.9549    1.0905 H   0  0  0  0  0  0  0  0  0  0  0  0
    1.6747   -3.2224    0.2864 H   0  0  0  0  0  0  0  0  0  0  0  0
    3.2332   -3.0006    1.0614 H   0  0  0  0  0  0  0  0  0  0  0  0
    1.6093    1.7687   -1.0390 H   0  0  0  0  0  0  0  0  0  0  0  0
    3.1372    1.9910   -0.2038 H   0  0  0  0  0  0  0  0  0  0  0  0
    2.2163   -3.7474    3.2594 H   0  0  0  0  0  0  0  0  0  0  0  0
    0.6636   -3.9211    2.4609 H   0  0  0  0  0  0  0  0  0  0  0  0
    0.5484    3.4859    0.3822 H   0  0  0  0  0  0  0  0  0  0  0  0
    2.0414    3.7312    1.2698 H   0  0  0  0  0  0  0  0  0  0  0  0
    3.1679   -5.5125    1.7602 H   0  0  0  0  0  0  0  0  0  0  0  0
    1.6223   -5.6400    0.9380 H   0  0  0  0  0  0  0  0  0  0  0  0
    1.6299    4.2611   -1.7283 H   0  0  0  0  0  0  0  0  0  0  0  0
    3.1619    4.4504   -0.9009 H   0  0  0  0  0  0  0  0  0  0  0  0
    2.1463   -6.3000    3.8650 H   0  0  0  0  0  0  0  0  0  0  0  0
    0.5721   -6.4151    3.1084 H   0  0  0  0  0  0  0  0  0  0  0  0
    2.1577    6.1818    0.6113 H   0  0  0  0  0  0  0  0  0  0  0  0
    0.6068    5.9969   -0.2310 H   0  0  0  0  0  0  0  0  0  0  0  0
    3.0545   -8.0551    2.3027 H   0  0  0  0  0  0  0  0  0  0  0  0
    1.4428   -8.1951    1.5432 H   0  0  0  0  0  0  0  0  0  0  0  0
    1.8472    7.7093   -1.0285 H   0  0  0  0  0  0  0  0  0  0  0  0
  1  2  1  0  0  0  0
  1  3  1  0  0  0  0
  1 15  1  0  0  0  0
  1 16  1  0  0  0  0
  2  4  1  0  0  0  0
  2 17  1  0  0  0  0
  2 18  1  0  0  0  0
  3  5  1  0  0  0  0
  3 19  1  0  0  0  0
  3 20  1  0  0  0  0
  4  6  1  0  0  0  0
  4 21  1  0  0  0  0
  4 22  1  0  0  0  0
  5  7  1  0  0  0  0
  5 23  1  0  0  0  0
  5 24  1  0  0  0  0
  6  8  1  0  0  0  0
  6 25  1  0  0  0  0
  6 26  1  0  0  0  0
  7  9  1  0  0  0  0
  7 27  1  0  0  0  0
  7 28  1  0  0  0  0
  8 10  1  0  0  0  0
  8 29  1  0  0  0  0
  8 30  1  0  0  0  0
  9 11  1  0  0  0  0
  9 31  1  0  0  0  0
  9 32  1  0  0  0  0
 10 12  1  0  0  0  0
 10 33  1  0  0  0  0
 10 34  1  0  0  0  0
 11 13  1  0  0  0  0
 11 35  1  0  0  0  0
 11 36  1  0  0  0  0
 12 14  1  0  0  0  0
 12 37  1  0  0  0  0
 12 38  1  0  0  0  0
 13 39  1  0  0  0  0
M  END
$$$$
DrugBank_2345
 OpenBabel01151909533D

 71 76  0  0  0  0  0  0  0  0999 V2000
    7.0887    2.4464    4.7354 C   0  0  0  0  0  0  0  0  0  0  0  0
    7.5996    2.3142    6.0250 C   0  0  0  0  0  0  0  0  0  0  0  0
    5.0658   -1.8350   -3.4354 C   0  0  0  0  0  0  0  0  0  0  0  0
    5.6314   -1.0303   -4.4243 C   0  0  0  0  0  0  0  0  0  0  0  0
    7.0207    1.3368    3.8924 C   0  0  0  0  0  0  0  0  0  0  0  0
    8.0448    1.0717    6.4772 C   0  0  0  0  0  0  0  0  0  0  0  0
    4.5209   -3.0743   -3.7718 C   0  0  0  0  0  0  0  0  0  0  0  0
    6.7837   -4.3527   -0.4257 C   0  0  0  0  0  0  0  0  0  0  0  0
    6.1316   -5.2896   -1.2272 C   0  0  0  0  0  0  0  0  0  0  0  0
    5.6521   -1.4646   -5.7496 C   0  0  0  0  0  0  0  0  0  0  0  0
    5.8359   -5.3791    1.5454 C   0  0  0  0  0  0  0  0  0  0  0  0
    8.2431   -4.7513    3.5398 C   0  0  0  0  0  0  0  0  0  0  0  0
    7.4663    0.0882    4.3423 C   0  0  0  0  0  0  0  0  0  0  0  0
    7.9784   -0.0444    5.6347 C   0  0  0  0  0  0  0  0  0  0  0  0
    7.8643   -2.3927    3.9302 C   0  0  0  0  0  0  0  0  0  0  0  0
    8.3762   -2.5253    5.2226 C   0  0  0  0  0  0  0  0  0  0  0  0
    6.6360   -4.3975    0.9607 C   0  0  0  0  0  0  0  0  0  0  0  0
    4.5415   -3.5086   -5.0971 C   0  0  0  0  0  0  0  0  0  0  0  0
    5.3315   -6.2712   -0.6425 C   0  0  0  0  0  0  0  0  0  0  0  0
    7.7979   -3.5088    3.0875 C   0  0  0  0  0  0  0  0  0  0  0  0
    8.8219   -3.7740    5.6724 C   0  0  0  0  0  0  0  0  0  0  0  0
    5.1072   -2.7038   -6.0861 C   0  0  0  0  0  0  0  0  0  0  0  0
    5.1837   -6.3160    0.7438 C   0  0  0  0  0  0  0  0  0  0  0  0
    8.7540   -4.8836    4.8295 C   0  0  0  0  0  0  0  0  0  0  0  0
    3.8582   -5.9624   -4.6781 C   0  0  0  0  0  0  0  0  0  0  0  0
    4.1919   -7.1327   -2.7925 C   0  0  0  0  0  0  0  0  0  0  0  0
    3.1729   -8.0954   -4.5452 C   0  0  0  0  0  0  0  0  0  0  0  0
    7.3906   -1.0811    3.4428 C   0  0  0  0  0  0  0  0  0  0  0  0
    8.4520   -1.3560    6.1221 C   0  0  0  0  0  0  0  0  0  0  0  0
    4.3484   -5.9603   -3.4279 N   0  0  0  0  0  0  0  0  0  0  0  0
    3.2589   -6.9895   -5.3019 N   0  0  0  0  0  0  0  0  0  0  0  0
    3.6156   -8.2407   -3.2858 N   0  0  0  0  0  0  0  0  0  0  0  0
    9.3487   -3.9606    6.9735 N   0  0  0  0  0  0  0  0  0  0  0  0
    7.2928   -3.4523    1.7682 N   0  0  0  0  0  0  0  0  0  0  0  0
    3.9853   -4.7629   -5.4113 N   0  0  0  0  0  0  0  0  0  0  0  0
    4.6814   -7.2084   -1.4755 N   0  0  0  0  0  0  0  0  0  0  0  0
    6.9361   -0.9262    2.3163 O   0  0  0  0  0  0  0  0  0  0  0  0
    8.8934   -1.4294    7.2619 O   0  0  0  0  0  0  0  0  0  0  0  0
    5.8839   -2.2054   -8.5122 O   0  0  0  0  0  0  0  0  0  0  0  0
    5.5807   -4.6020   -7.7648 O   0  0  0  0  0  0  0  0  0  0  0  0
    4.1659   -7.2495    2.9417 O   0  0  0  0  0  0  0  0  0  0  0  0
    2.9536   -7.6092    0.7519 O   0  0  0  0  0  0  0  0  0  0  0  0
    9.1799   -7.3678    4.2087 O   0  0  0  0  0  0  0  0  0  0  0  0
   10.5742   -6.2739    6.0125 O   0  0  0  0  0  0  0  0  0  0  0  0
    3.6001   -3.1554   -8.2646 O   0  0  0  0  0  0  0  0  0  0  0  0
    5.0003   -8.9351    1.3162 O   0  0  0  0  0  0  0  0  0  0  0  0
    8.2056   -6.9501    6.4573 O   0  0  0  0  0  0  0  0  0  0  0  0
    5.1530   -3.2132   -7.7608 S   0  0  0  0  0  0  0  0  0  0  0  0
    4.1875   -7.5322    1.5155 S   0  0  0  0  0  0  0  0  0  0  0  0
    9.2992   -6.4684    5.3442 S   0  0  0  0  0  0  0  0  0  0  0  0
    2.4225   -9.4552   -5.2568 Cl  0  0  0  0  0  0  0  0  0  0  0  0
    6.7431    3.4149    4.3854 H   0  0  0  0  0  0  0  0  0  0  0  0
    7.6515    3.1798    6.6791 H   0  0  0  0  0  0  0  0  0  0  0  0
    5.0502   -1.4970   -2.4033 H   0  0  0  0  0  0  0  0  0  0  0  0
    6.0554   -0.0654   -4.1619 H   0  0  0  0  0  0  0  0  0  0  0  0
    6.6188    1.4688    2.8914 H   0  0  0  0  0  0  0  0  0  0  0  0
    8.4382    0.9982    7.4876 H   0  0  0  0  0  0  0  0  0  0  0  0
    4.0833   -3.6927   -2.9921 H   0  0  0  0  0  0  0  0  0  0  0  0
    7.4054   -3.5926   -0.8919 H   0  0  0  0  0  0  0  0  0  0  0  0
    6.2542   -5.2441   -2.3063 H   0  0  0  0  0  0  0  0  0  0  0  0
    6.0963   -0.8285   -6.5106 H   0  0  0  0  0  0  0  0  0  0  0  0
    5.7207   -5.4131    2.6264 H   0  0  0  0  0  0  0  0  0  0  0  0
    8.1916   -5.6188    2.8849 H   0  0  0  0  0  0  0  0  0  0  0  0
    9.4477   -3.1690    7.5718 H   0  0  0  0  0  0  0  0  0  0  0  0
    9.6959   -4.8600    7.2285 H   0  0  0  0  0  0  0  0  0  0  0  0
    7.4331   -2.5528    1.3207 H   0  0  0  0  0  0  0  0  0  0  0  0
    3.6001   -4.8178   -6.3491 H   0  0  0  0  0  0  0  0  0  0  0  0
    4.5406   -8.1119   -1.0351 H   0  0  0  0  0  0  0  0  0  0  0  0
    3.2021   -2.2539   -8.3015 H   0  0  0  0  0  0  0  0  0  0  0  0
    5.8609   -8.9953    1.7938 H   0  0  0  0  0  0  0  0  0  0  0  0
    8.0518   -6.3185    7.1988 H   0  0  0  0  0  0  0  0  0  0  0  0
  1  2  2  0  0  0  0
  1  5  1  0  0  0  0
  1 52  1  0  0  0  0
  2  6  1  0  0  0  0
  2 53  1  0  0  0  0
  3  4  2  0  0  0  0
  3  7  1  0  0  0  0
  3 54  1  0  0  0  0
  4 10  1  0  0  0  0
  4 55  1  0  0  0  0
  5 13  2  0  0  0  0
  5 56  1  0  0  0  0
  6 14  2  0  0  0  0
  6 57  1  0  0  0  0
  7 18  2  0  0  0  0
  7 58  1  0  0  0  0
  8  9  2  0  0  0  0
  8 17  1  0  0  0  0
  8 59  1  0  0  0  0
  9 19  1  0  0  0  0
  9 60  1  0  0  0  0
 10 22  2  0  0  0  0
 10 61  1  0  0  0  0
 11 17  2  0  0  0  0
 11 23  1  0  0  0  0
 11 62  1  0  0  0  0
 12 20  2  0  0  0  0
 12 24  1  0  0  0  0
 12 63  1  0  0  0  0
 13 14  1  0  0  0  0
 13 28  1  0  0  0  0
 14 29  1  0  0  0  0
 15 16  2  0  0  0  0
 15 20  1  0  0  0  0
 15 28  1  0  0  0  0
 16 21  1  0  0  0  0
 16 29  1  0  0  0  0
 17 34  1  0  0  0  0
 18 22  1  0  0  0  0
 18 35  1  0  0  0  0
 19 23  2  0  0  0  0
 19 36  1  0  0  0  0
 20 34  1  0  0  0  0
 21 24  2  0  0  0  0
 21 33  1  0  0  0  0
 22 48  1  0  0  0  0
 23 49  1  0  0  0  0
 24 50  1  0  0  0  0
 25 30  2  0  0  0  0
 25 31  1  0  0  0  0
 25 35  1  0  0  0  0
 26 30  1  0  0  0  0
 26 32  2  0  0  0  0
 26 36  1  0  0  0  0
 27 31  2  0  0  0  0
 27 32  1  0  0  0  0
 27 51  1  0  0  0  0
 28 37  2  0  0  0  0
 29 38  2  0  0  0  0
 33 64  1  0  0  0  0
 33 65  1  0  0  0  0
 34 66  1  0  0  0  0
 35 67  1  0  0  0  0
 36 68  1  0  0  0  0
 39 48  2  0  0  0  0
 40 48  2  0  0  0  0
 41 49  2  0  0  0  0
 42 49  2  0  0  0  0
 43 50  2  0  0  0  0
 44 50  2  0  0  0  0
 45 48  1  0  0  0  0
 45 69  1  0  0  0  0
 46 49  1  0  0  0  0
 46 70  1  0  0  0  0
 47 50  1  0  0  0  0
 47 71  1  0  0  0  0
M  END
$$$$
DrugBank_2354
 OpenBabel01151909533D

 60 59  0  0  0  0  0  0  0  0999 V2000
   -6.9718    4.2119   -7.3492 C   0  0  0  0  0  0  0  0  0  0  0  0
    3.5663   -4.6654   -0.4732 C   0  0  0  0  0  0  0  0  0  0  0  0
    1.2774   -5.2917    0.2652 C   0  0  0  0  0  0  0  0  0  0  0  0
   -5.5316    3.7401   -7.4705 C   0  0  0  0  0  0  0  0  0  0  0  0
   -5.0866    2.9743   -6.2248 C   0  0  0  0  0  0  0  0  0  0  0  0
   -3.6485    2.4721   -6.3644 C   0  0  0  0  0  0  0  0  0  0  0  0
   -3.1919    1.7343   -5.1036 C   0  0  0  0  0  0  0  0  0  0  0  0
   -1.7667    1.1995   -5.2605 C   0  0  0  0  0  0  0  0  0  0  0  0
   -1.2846    0.3889   -4.0540 C   0  0  0  0  0  0  0  0  0  0  0  0
    0.1501   -0.1254   -4.2003 C   0  0  0  0  0  0  0  0  0  0  0  0
    0.5676   -0.9498   -2.9798 C   0  0  0  0  0  0  0  0  0  0  0  0
    1.9639   -1.5658   -3.1097 C   0  0  0  0  0  0  0  0  0  0  0  0
    2.4691   -2.3372   -1.8847 C   0  0  0  0  0  0  0  0  0  0  0  0
    0.8871   -2.4838    1.2219 C   0  0  0  0  0  0  0  0  0  0  0  0
    1.5906   -3.4921   -1.4200 C   0  0  0  0  0  0  0  0  0  0  0  0
    2.2483   -3.1077    0.9457 C   0  0  0  0  0  0  0  0  0  0  0  0
    0.9062   -1.4745    2.3618 C   0  0  0  0  0  0  0  0  0  0  0  0
    2.1552   -4.1219   -0.2038 N   0  3  0  0  0  0  0  0  0  0  0  0
   -1.6286   -1.8249    2.9418 O   0  0  0  0  0  0  0  0  0  0  0  0
   -0.9566    0.1814    1.5487 O   0  0  0  0  0  0  0  0  0  0  0  0
   -0.3411    0.0623    3.9766 O   0  0  0  0  0  0  0  0  0  0  0  0
   -0.6911   -0.7660    2.6158 S   0  0  0  0  0  0  0  0  0  0  0  0
   -7.6495    3.3668   -7.1924 H   0  0  0  0  0  0  0  0  0  0  0  0
   -7.2878    4.7432   -8.2527 H   0  0  0  0  0  0  0  0  0  0  0  0
   -7.0772    4.8939   -6.4997 H   0  0  0  0  0  0  0  0  0  0  0  0
    4.1872   -3.8317   -0.8062 H   0  0  0  0  0  0  0  0  0  0  0  0
    3.9448   -5.0890    0.4590 H   0  0  0  0  0  0  0  0  0  0  0  0
    3.4875   -5.4300   -1.2483 H   0  0  0  0  0  0  0  0  0  0  0  0
    0.2757   -4.9020    0.4556 H   0  0  0  0  0  0  0  0  0  0  0  0
    1.2633   -6.0389   -0.5305 H   0  0  0  0  0  0  0  0  0  0  0  0
    1.7204   -5.6973    1.1768 H   0  0  0  0  0  0  0  0  0  0  0  0
   -4.8805    4.6083   -7.6264 H   0  0  0  0  0  0  0  0  0  0  0  0
   -5.4363    3.0998   -8.3554 H   0  0  0  0  0  0  0  0  0  0  0  0
   -5.1648    3.6258   -5.3458 H   0  0  0  0  0  0  0  0  0  0  0  0
   -5.7582    2.1235   -6.0570 H   0  0  0  0  0  0  0  0  0  0  0  0
   -3.5767    1.8014   -7.2293 H   0  0  0  0  0  0  0  0  0  0  0  0
   -2.9798    3.3200   -6.5559 H   0  0  0  0  0  0  0  0  0  0  0  0
   -3.2449    2.4192   -4.2501 H   0  0  0  0  0  0  0  0  0  0  0  0
   -3.8762    0.9026   -4.8973 H   0  0  0  0  0  0  0  0  0  0  0  0
   -1.0764    2.0317   -5.4446 H   0  0  0  0  0  0  0  0  0  0  0  0
   -1.7235    0.5520   -6.1452 H   0  0  0  0  0  0  0  0  0  0  0  0
   -1.9599   -0.4663   -3.9263 H   0  0  0  0  0  0  0  0  0  0  0  0
   -1.3696    0.9966   -3.1448 H   0  0  0  0  0  0  0  0  0  0  0  0
    0.8325    0.7219   -4.3196 H   0  0  0  0  0  0  0  0  0  0  0  0
    0.2294   -0.7411   -5.1042 H   0  0  0  0  0  0  0  0  0  0  0  0
    0.5111   -0.3317   -2.0765 H   0  0  0  0  0  0  0  0  0  0  0  0
   -0.1501   -1.7677   -2.8373 H   0  0  0  0  0  0  0  0  0  0  0  0
    1.9723   -2.2273   -3.9844 H   0  0  0  0  0  0  0  0  0  0  0  0
    2.6830   -0.7671   -3.3319 H   0  0  0  0  0  0  0  0  0  0  0  0
    3.4718   -2.7209   -2.1139 H   0  0  0  0  0  0  0  0  0  0  0  0
    2.6010   -1.6414   -1.0478 H   0  0  0  0  0  0  0  0  0  0  0  0
    0.5443   -1.9852    0.3066 H   0  0  0  0  0  0  0  0  0  0  0  0
    0.1512   -3.2691    1.4360 H   0  0  0  0  0  0  0  0  0  0  0  0
    0.5931   -3.1328   -1.1496 H   0  0  0  0  0  0  0  0  0  0  0  0
    1.4905   -4.2773   -2.1740 H   0  0  0  0  0  0  0  0  0  0  0  0
    2.6413   -3.6425    1.8155 H   0  0  0  0  0  0  0  0  0  0  0  0
    2.9693   -2.3469    0.6323 H   0  0  0  0  0  0  0  0  0  0  0  0
    1.5894   -0.6470    2.1491 H   0  0  0  0  0  0  0  0  0  0  0  0
    1.1931   -1.9365    3.3104 H   0  0  0  0  0  0  0  0  0  0  0  0
   -0.1431   -0.4903    4.7690 H   0  0  0  0  0  0  0  0  0  0  0  0
  1  4  1  0  0  0  0
  1 23  1  0  0  0  0
  1 24  1  0  0  0  0
  1 25  1  0  0  0  0
  2 18  1  0  0  0  0
  2 26  1  0  0  0  0
  2 27  1  0  0  0  0
  2 28  1  0  0  0  0
  3 18  1  0  0  0  0
  3 29  1  0  0  0  0
  3 30  1  0  0  0  0
  3 31  1  0  0  0  0
  4  5  1  0  0  0  0
  4 32  1  0  0  0  0
  4 33  1  0  0  0  0
  5  6  1  0  0  0  0
  5 34  1  0  0  0  0
  5 35  1  0  0  0  0
  6  7  1  0  0  0  0
  6 36  1  0  0  0  0
  6 37  1  0  0  0  0
  7  8  1  0  0  0  0
  7 38  1  0  0  0  0
  7 39  1  0  0  0  0
  8  9  1  0  0  0  0
  8 40  1  0  0  0  0
  8 41  1  0  0  0  0
  9 10  1  0  0  0  0
  9 42  1  0  0  0  0
  9 43  1  0  0  0  0
 10 11  1  0  0  0  0
 10 44  1  0  0  0  0
 10 45  1  0  0  0  0
 11 12  1  0  0  0  0
 11 46  1  0  0  0  0
 11 47  1  0  0  0  0
 12 13  1  0  0  0  0
 12 48  1  0  0  0  0
 12 49  1  0  0  0  0
 13 15  1  0  0  0  0
 13 50  1  0  0  0  0
 13 51  1  0  0  0  0
 14 16  1  0  0  0  0
 14 17  1  0  0  0  0
 14 52  1  0  0  0  0
 14 53  1  0  0  0  0
 15 18  1  0  0  0  0
 15 54  1  0  0  0  0
 15 55  1  0  0  0  0
 16 18  1  0  0  0  0
 16 56  1  0  0  0  0
 16 57  1  0  0  0  0
 17 22  1  0  0  0  0
 17 58  1  0  0  0  0
 17 59  1  0  0  0  0
 19 22  2  0  0  0  0
 20 22  2  0  0  0  0
 21 22  1  0  0  0  0
 21 60  1  0  0  0  0
M  CHG  1  18   1
M  END
$$$$
DrugBank_2358
 OpenBabel01151909533D

 30 32  0  0  0  0  0  0  0  0999 V2000
   -5.7767    0.0571   -8.3994 C   0  0  0  0  0  0  0  0  0  0  0  0
   -5.4676   -1.2900   -8.2117 C   0  0  0  0  0  0  0  0  0  0  0  0
   -5.1594    1.0304   -7.6136 C   0  0  0  0  0  0  0  0  0  0  0  0
   -4.5413   -1.6640   -7.2382 C   0  0  0  0  0  0  0  0  0  0  0  0
   -4.2331    0.6564   -6.6401 C   0  0  0  0  0  0  0  0  0  0  0  0
   -1.8073    0.5406   -2.1466 C   0  0  0  0  0  0  0  0  0  0  0  0
   -3.9241   -0.6908   -6.4523 C   0  0  0  0  0  0  0  0  0  0  0  0
   -0.7939   -0.0807   -1.3925 C   0  0  0  0  0  0  0  0  0  0  0  0
   -1.9755   -0.2784   -3.2363 C   0  0  0  0  0  0  0  0  0  0  0  0
   -2.9584   -1.0807   -5.4372 C   0  0  0  0  0  0  0  0  0  0  0  0
    0.2802    1.8689   -0.0113 C   0  0  0  0  0  0  0  0  0  0  0  0
    1.2214    0.7091    0.0830 C   0  0  0  0  0  0  0  0  0  0  0  0
   -0.2589    0.4596   -0.0874 C   0  0  0  0  0  0  0  0  0  0  0  0
   -0.3496   -1.2076   -1.9553 N   0  0  0  0  0  0  0  0  0  0  0  0
   -1.0874   -1.3009   -3.0747 N   0  0  0  0  0  0  0  0  0  0  0  0
   -2.8441   -0.1959   -4.3537 N   0  0  0  0  0  0  0  0  0  0  0  0
   -2.2696   -2.1040   -5.5525 O   0  0  0  0  0  0  0  0  0  0  0  0
   -6.4979    0.3482   -9.1575 H   0  0  0  0  0  0  0  0  0  0  0  0
   -5.9484   -2.0477   -8.8235 H   0  0  0  0  0  0  0  0  0  0  0  0
   -5.3998    2.0793   -7.7600 H   0  0  0  0  0  0  0  0  0  0  0  0
   -4.3078   -2.7166   -7.1003 H   0  0  0  0  0  0  0  0  0  0  0  0
   -3.7584    1.4234   -6.0335 H   0  0  0  0  0  0  0  0  0  0  0  0
   -2.3415    1.4551   -1.9309 H   0  0  0  0  0  0  0  0  0  0  0  0
    0.0901    2.4385    0.8910 H   0  0  0  0  0  0  0  0  0  0  0  0
    0.3033    2.4647   -0.9164 H   0  0  0  0  0  0  0  0  0  0  0  0
    1.8780    0.5241   -0.7594 H   0  0  0  0  0  0  0  0  0  0  0  0
    1.6661    0.4959    1.0482 H   0  0  0  0  0  0  0  0  0  0  0  0
   -0.7881    0.1024    0.8139 H   0  0  0  0  0  0  0  0  0  0  0  0
   -0.9329   -2.0919   -3.6871 H   0  0  0  0  0  0  0  0  0  0  0  0
   -3.4652    0.6092   -4.3727 H   0  0  0  0  0  0  0  0  0  0  0  0
  1  2  2  0  0  0  0
  1  3  1  0  0  0  0
  1 18  1  0  0  0  0
  2  4  1  0  0  0  0
  2 19  1  0  0  0  0
  3  5  2  0  0  0  0
  3 20  1  0  0  0  0
  4  7  2  0  0  0  0
  4 21  1  0  0  0  0
  5  7  1  0  0  0  0
  5 22  1  0  0  0  0
  6  8  1  0  0  0  0
  6  9  2  0  0  0  0
  6 23  1  0  0  0  0
  7 10  1  0  0  0  0
  8 13  1  0  0  0  0
  8 14  2  0  0  0  0
  9 15  1  0  0  0  0
  9 16  1  0  0  0  0
 10 16  1  0  0  0  0
 10 17  2  0  0  0  0
 11 12  1  0  0  0  0
 11 13  1  0  0  0  0
 11 24  1  0  0  0  0
 11 25  1  0  0  0  0
 12 13  1  0  0  0  0
 12 26  1  0  0  0  0
 12 27  1  0  0  0  0
 13 28  1  0  0  0  0
 14 15  1  0  0  0  0
 15 29  1  0  0  0  0
 16 30  1  0  0  0  0
M  END
$$$$
DrugBank_5005
 OpenBabel01151909533D

 40 43  0  0  0  0  0  0  0  0999 V2000
   -0.2287   -1.1949    4.0176 C   0  0  0  0  0  0  0  0  0  0  0  0
   -0.0855   -8.6108    2.9582 C   0  0  0  0  0  0  0  0  0  0  0  0
    0.0299   -7.4591    2.1799 C   0  0  0  0  0  0  0  0  0  0  0  0
    0.3753   -8.6120    4.2748 C   0  0  0  0  0  0  0  0  0  0  0  0
    2.9843   -4.9814   -4.3414 C   0  0  0  0  0  0  0  0  0  0  0  0
    5.0731   -4.9339   -3.1502 C   0  0  0  0  0  0  0  0  0  0  0  0
    3.7027   -4.7436   -5.5021 C   0  0  0  0  0  0  0  0  0  0  0  0
    5.6981   -4.6985   -4.3642 C   0  0  0  0  0  0  0  0  0  0  0  0
    0.1712   -1.0202    0.3120 C   0  0  0  0  0  0  0  0  0  0  0  0
    0.6063   -6.3085    2.7181 C   0  0  0  0  0  0  0  0  0  0  0  0
    3.6901   -5.0770   -3.1473 C   0  0  0  0  0  0  0  0  0  0  0  0
   -0.2957   -1.6677    1.4614 C   0  0  0  0  0  0  0  0  0  0  0  0
    0.9517   -7.4614    4.8130 C   0  0  0  0  0  0  0  0  0  0  0  0
    1.0671   -6.3096    4.0347 C   0  0  0  0  0  0  0  0  0  0  0  0
    0.2074   -2.9458    1.3762 C   0  0  0  0  0  0  0  0  0  0  0  0
    1.5007   -5.2679    0.5860 C   0  0  0  0  0  0  0  0  0  0  0  0
    0.7029   -5.1105    1.8427 C   0  0  0  0  0  0  0  0  0  0  0  0
    1.5936   -4.1854   -0.2048 C   0  0  0  0  0  0  0  0  0  0  0  0
    2.9616   -5.3330   -1.8596 C   0  0  0  0  0  0  0  0  0  0  0  0
    0.5146   -1.3547    4.8939 N   0  0  0  0  0  0  0  0  0  0  0  0
    5.0462   -4.5992   -5.5444 N   0  0  0  0  0  0  0  0  0  0  0  0
    0.9163   -1.8091   -0.4598 N   0  0  0  0  0  0  0  0  0  0  0  0
    0.0895   -4.0201    2.2022 N   0  0  0  0  0  0  0  0  0  0  0  0
    0.9442   -3.0060    0.1927 N   0  0  0  0  0  0  0  0  0  0  0  0
    2.2798   -4.1609   -1.3857 N   0  0  0  0  0  0  0  0  0  0  0  0
   -1.2887   -0.9787    2.7075 S   0  0  0  0  0  0  0  0  0  0  0  0
    1.5008   -7.5338    6.4517 Cl  0  0  0  0  0  0  0  0  0  0  0  0
    1.7824   -4.8674    4.6847 Cl  0  0  0  0  0  0  0  0  0  0  0  0
   -0.5348   -9.5065    2.5394 H   0  0  0  0  0  0  0  0  0  0  0  0
   -0.3352   -7.4721    1.1560 H   0  0  0  0  0  0  0  0  0  0  0  0
    0.2759   -9.5187    4.8663 H   0  0  0  0  0  0  0  0  0  0  0  0
    1.9052   -5.0874   -4.3727 H   0  0  0  0  0  0  0  0  0  0  0  0
    5.6513   -5.0036   -2.2353 H   0  0  0  0  0  0  0  0  0  0  0  0
    3.1990   -4.6593   -6.4596 H   0  0  0  0  0  0  0  0  0  0  0  0
    6.7751   -4.5795   -4.4201 H   0  0  0  0  0  0  0  0  0  0  0  0
    0.0042   -0.0005   -0.0062 H   0  0  0  0  0  0  0  0  0  0  0  0
    1.9702   -6.2158    0.3536 H   0  0  0  0  0  0  0  0  0  0  0  0
    2.2180   -6.1270   -1.9880 H   0  0  0  0  0  0  0  0  0  0  0  0
    3.6528   -5.6584   -1.0751 H   0  0  0  0  0  0  0  0  0  0  0  0
    2.2786   -3.3048   -1.8855 H   0  0  0  0  0  0  0  0  0  0  0  0
  1 20  3  0  0  0  0
  1 26  1  0  0  0  0
  2  3  2  0  0  0  0
  2  4  1  0  0  0  0
  2 29  1  0  0  0  0
  3 10  1  0  0  0  0
  3 30  1  0  0  0  0
  4 13  2  0  0  0  0
  4 31  1  0  0  0  0
  5  7  2  0  0  0  0
  5 11  1  0  0  0  0
  5 32  1  0  0  0  0
  6  8  1  0  0  0  0
  6 11  2  0  0  0  0
  6 33  1  0  0  0  0
  7 21  1  0  0  0  0
  7 34  1  0  0  0  0
  8 21  2  0  0  0  0
  8 35  1  0  0  0  0
  9 12  1  0  0  0  0
  9 22  2  0  0  0  0
  9 36  1  0  0  0  0
 10 14  2  0  0  0  0
 10 17  1  0  0  0  0
 11 19  1  0  0  0  0
 12 15  2  0  0  0  0
 12 26  1  0  0  0  0
 13 14  1  0  0  0  0
 13 27  1  0  0  0  0
 14 28  1  0  0  0  0
 15 23  1  0  0  0  0
 15 24  1  0  0  0  0
 16 17  1  0  0  0  0
 16 18  2  0  0  0  0
 16 37  1  0  0  0  0
 17 23  2  0  0  0  0
 18 24  1  0  0  0  0
 18 25  1  0  0  0  0
 19 25  1  0  0  0  0
 19 38  1  0  0  0  0
 19 39  1  0  0  0  0
 22 24  1  0  0  0  0
 25 40  1  0  0  0  0
M  END
$$$$
DrugBank_5008
 OpenBabel01151909533D

 65 65  0  0  0  0  0  0  0  0999 V2000
    3.8464    0.1888    1.0234 C   0  0  0  0  0  0  0  0  0  0  0  0
    3.3689    1.9310   -0.5809 C   0  0  0  0  0  0  0  0  0  0  0  0
    5.1600    0.1214    0.5593 C   0  0  0  0  0  0  0  0  0  0  0  0
    4.6825    1.8636   -1.0450 C   0  0  0  0  0  0  0  0  0  0  0  0
    2.9508    1.0935    0.4533 C   0  0  0  0  0  0  0  0  0  0  0  0
    5.5781    0.9588   -0.4749 C   0  0  0  0  0  0  0  0  0  0  0  0
    0.4746    0.5943   -1.2591 C   0  0  0  0  0  0  0  0  0  0  0  0
    0.9192   -1.2393    0.4950 C   0  0  0  0  0  0  0  0  0  0  0  0
   -3.2366   -0.1251   -1.4904 C   0  0  0  0  0  0  0  0  0  0  0  0
   -0.3537    3.8261   -2.7776 C   0  0  0  0  0  0  0  0  0  0  0  0
    1.2811   -2.9555    3.7138 C   0  0  0  0  0  0  0  0  0  0  0  0
   -3.9951    1.6283   -3.6117 C   0  0  0  0  0  0  0  0  0  0  0  0
   -4.1069   -0.4399   -5.0327 C   0  0  0  0  0  0  0  0  0  0  0  0
   -5.6326   -0.1993   -3.0521 C   0  0  0  0  0  0  0  0  0  0  0  0
    1.5245    1.1664    0.9573 C   0  0  0  0  0  0  0  0  0  0  0  0
   -0.9112    0.4575    0.8539 C   0  0  0  0  0  0  0  0  0  0  0  0
   -1.9517   -0.6343    0.5810 C   0  0  0  0  0  0  0  0  0  0  0  0
    0.0586    2.3696   -2.7743 C   0  0  0  0  0  0  0  0  0  0  0  0
    1.3136   -2.8329    2.2053 C   0  0  0  0  0  0  0  0  0  0  0  0
    0.5064    0.2240    0.2371 C   0  0  0  0  0  0  0  0  0  0  0  0
   -4.2508    0.1219   -3.6199 C   0  0  0  0  0  0  0  0  0  0  0  0
    6.9227    0.8901   -0.9499 N   0  0  0  0  0  0  0  0  0  0  0  0
   -2.2418   -0.8098   -0.8132 N   0  0  0  0  0  0  0  0  0  0  0  0
    0.7441   -0.1719   -2.1758 O   0  0  0  0  0  0  0  0  0  0  0  0
    1.2000   -2.0521   -0.3769 O   0  0  0  0  0  0  0  0  0  0  0  0
   -3.9886    0.7081   -0.9958 O   0  0  0  0  0  0  0  0  0  0  0  0
    6.0873    0.4910   -3.3734 O   0  0  0  0  0  0  0  0  0  0  0  0
    8.5463    0.3394   -2.8770 O   0  0  0  0  0  0  0  0  0  0  0  0
    7.0144   -1.4773   -2.1588 O   0  0  0  0  0  0  0  0  0  0  0  0
    0.1132    1.9035   -1.4222 O   0  0  0  0  0  0  0  0  0  0  0  0
    0.9359   -1.5024    1.8374 O   0  0  0  0  0  0  0  0  0  0  0  0
   -3.2624   -0.5126   -2.8006 O   0  0  0  0  0  0  0  0  0  0  0  0
    7.1679    0.1142   -2.4802 S   0  0  0  0  0  0  0  0  0  0  0  0
    3.5287   -0.4693    1.8279 H   0  0  0  0  0  0  0  0  0  0  0  0
    2.6777    2.6384   -1.0315 H   0  0  0  0  0  0  0  0  0  0  0  0
    5.8504   -0.5866    1.0105 H   0  0  0  0  0  0  0  0  0  0  0  0
    4.9981    2.5198   -1.8522 H   0  0  0  0  0  0  0  0  0  0  0  0
   -1.3408    3.9533   -2.3246 H   0  0  0  0  0  0  0  0  0  0  0  0
    0.3701    4.4335   -2.2242 H   0  0  0  0  0  0  0  0  0  0  0  0
   -0.3812    4.2170   -3.8001 H   0  0  0  0  0  0  0  0  0  0  0  0
    1.9798   -2.2536    4.1775 H   0  0  0  0  0  0  0  0  0  0  0  0
    0.2744   -2.7564    4.0956 H   0  0  0  0  0  0  0  0  0  0  0  0
    1.5438   -3.9723    4.0240 H   0  0  0  0  0  0  0  0  0  0  0  0
   -4.0974    2.0354   -2.5994 H   0  0  0  0  0  0  0  0  0  0  0  0
   -2.9941    1.8696   -3.9840 H   0  0  0  0  0  0  0  0  0  0  0  0
   -4.7307    2.1533   -4.2317 H   0  0  0  0  0  0  0  0  0  0  0  0
   -4.2896   -1.5205   -5.0433 H   0  0  0  0  0  0  0  0  0  0  0  0
   -3.0874   -0.2954   -5.4082 H   0  0  0  0  0  0  0  0  0  0  0  0
   -4.8039    0.0364   -5.7298 H   0  0  0  0  0  0  0  0  0  0  0  0
   -5.8162   -1.2797   -3.0579 H   0  0  0  0  0  0  0  0  0  0  0  0
   -5.7410    0.1642   -2.0251 H   0  0  0  0  0  0  0  0  0  0  0  0
   -6.4206    0.2517   -3.6661 H   0  0  0  0  0  0  0  0  0  0  0  0
    1.1883    2.2100    0.8829 H   0  0  0  0  0  0  0  0  0  0  0  0
    1.5350    0.9566    2.0360 H   0  0  0  0  0  0  0  0  0  0  0  0
   -0.8146    0.5459    1.9445 H   0  0  0  0  0  0  0  0  0  0  0  0
   -1.3149    1.4211    0.5162 H   0  0  0  0  0  0  0  0  0  0  0  0
   -2.8970   -0.3593    1.0608 H   0  0  0  0  0  0  0  0  0  0  0  0
   -1.6485   -1.6037    0.9865 H   0  0  0  0  0  0  0  0  0  0  0  0
    1.0467    2.2494   -3.2286 H   0  0  0  0  0  0  0  0  0  0  0  0
   -0.6660    1.7641   -3.3269 H   0  0  0  0  0  0  0  0  0  0  0  0
    0.6126   -3.5375    1.7478 H   0  0  0  0  0  0  0  0  0  0  0  0
    2.3203   -3.0313    1.8255 H   0  0  0  0  0  0  0  0  0  0  0  0
    7.6058    0.6059   -0.2269 H   0  0  0  0  0  0  0  0  0  0  0  0
   -1.6804   -1.4806   -1.3379 H   0  0  0  0  0  0  0  0  0  0  0  0
    7.5953   -1.8199   -1.4394 H   0  0  0  0  0  0  0  0  0  0  0  0
  1  3  2  0  0  0  0
  1  5  1  0  0  0  0
  1 34  1  0  0  0  0
  2  4  1  0  0  0  0
  2  5  2  0  0  0  0
  2 35  1  0  0  0  0
  3  6  1  0  0  0  0
  3 36  1  0  0  0  0
  4  6  2  0  0  0  0
  4 37  1  0  0  0  0
  5 15  1  0  0  0  0
  6 22  1  0  0  0  0
  7 20  1  0  0  0  0
  7 24  2  0  0  0  0
  7 30  1  0  0  0  0
  8 20  1  0  0  0  0
  8 25  2  0  0  0  0
  8 31  1  0  0  0  0
  9 23  1  0  0  0  0
  9 26  2  0  0  0  0
  9 32  1  0  0  0  0
 10 18  1  0  0  0  0
 10 38  1  0  0  0  0
 10 39  1  0  0  0  0
 10 40  1  0  0  0  0
 11 19  1  0  0  0  0
 11 41  1  0  0  0  0
 11 42  1  0  0  0  0
 11 43  1  0  0  0  0
 12 21  1  0  0  0  0
 12 44  1  0  0  0  0
 12 45  1  0  0  0  0
 12 46  1  0  0  0  0
 13 21  1  0  0  0  0
 13 47  1  0  0  0  0
 13 48  1  0  0  0  0
 13 49  1  0  0  0  0
 14 21  1  0  0  0  0
 14 50  1  0  0  0  0
 14 51  1  0  0  0  0
 14 52  1  0  0  0  0
 15 20  1  0  0  0  0
 15 53  1  0  0  0  0
 15 54  1  0  0  0  0
 16 17  1  0  0  0  0
 16 20  1  0  0  0  0
 16 55  1  0  0  0  0
 16 56  1  0  0  0  0
 17 23  1  0  0  0  0
 17 57  1  0  0  0  0
 17 58  1  0  0  0  0
 18 30  1  0  0  0  0
 18 59  1  0  0  0  0
 18 60  1  0  0  0  0
 19 31  1  0  0  0  0
 19 61  1  0  0  0  0
 19 62  1  0  0  0  0
 21 32  1  0  0  0  0
 22 33  1  0  0  0  0
 22 63  1  0  0  0  0
 23 64  1  0  0  0  0
 27 33  2  0  0  0  0
 28 33  2  0  0  0  0
 29 33  1  0  0  0  0
 29 65  1  0  0  0  0
M  END
$$$$
DrugBank_2393
 OpenBabel01151909533D

 48 50  0  0  1  0  0  0  0  0999 V2000
   -4.1267   -0.7129    1.5453 C   0  0  0  0  0  0  0  0  0  0  0  0
   -0.3079   -0.0506    3.5233 C   0  0  0  0  0  0  0  0  0  0  0  0
   -2.1960   -1.0232    3.3442 C   0  0  0  0  0  0  0  0  0  0  0  0
   -2.1267   -0.1295    2.2874 C   0  0  0  0  0  0  0  0  0  0  0  0
   -3.3531   -1.7892    3.4453 C   0  0  0  0  0  0  0  0  0  0  0  0
   -5.6445    5.8637    1.0363 C   0  0  0  0  0  0  0  0  0  0  0  0
    0.1385    2.0525   -0.6912 C   0  0  2  0  0  0  0  0  0  0  0  0
    0.3852    0.9698    0.3367 C   0  0  2  0  0  0  0  0  0  0  0  0
   -1.2921    2.4556   -0.3738 C   0  0  2  0  0  0  0  0  0  0  0  0
   -0.3571    1.5191    1.5483 C   0  0  2  0  0  0  0  0  0  0  0  0
   -1.6307    3.8699   -0.8096 C   0  0  0  0  0  0  0  0  0  0  0  0
   -7.4011    4.7493    2.4671 C   0  0  0  0  0  0  0  0  0  0  0  0
   -7.1355    5.6764    1.2787 C   0  0  1  0  0  0  0  0  0  0  0  0
   -3.0548    0.0839    1.3427 N   0  0  0  0  0  0  0  0  0  0  0  0
   -4.3336   -1.6259    2.5248 N   0  0  0  0  0  0  0  0  0  0  0  0
   -1.0563   -0.9636    4.1063 N   0  0  0  0  0  0  0  0  0  0  0  0
   -0.9134    0.4840    2.4171 N   0  0  0  0  0  0  0  0  0  0  0  0
   -3.5086   -2.7207    4.4860 N   0  0  0  0  0  0  0  0  0  0  0  0
   -7.6721    7.0125    1.5467 N   0  0  0  0  0  0  0  0  0  0  0  0
   -5.2226    5.5061   -0.2853 N   0  0  0  0  0  0  0  0  0  0  0  0
   -4.8751    6.2806    1.8967 O   0  0  0  0  0  0  0  0  0  0  0  0
   -3.6331    5.7456   -2.2909 O   0  0  0  0  0  0  0  0  0  0  0  0
   -2.9242    6.6026   -0.0327 O   0  0  0  0  0  0  0  0  0  0  0  0
   -1.4267    2.3479    1.0536 O   0  0  0  0  0  0  0  0  0  0  0  0
    0.2665    1.5431   -2.0049 O   0  0  0  0  0  0  0  0  0  0  0  0
    1.7661    0.8230    0.6176 O   0  0  0  0  0  0  0  0  0  0  0  0
   -2.9839    4.1436   -0.4801 O   0  0  0  0  0  0  0  0  0  0  0  0
   -6.7022    3.0890    2.1995 S   0  0  0  0  0  0  0  0  0  0  0  0
   -3.6059    5.6118   -0.8456 S   0  0  0  0  0  0  0  0  0  0  0  0
   -4.9320   -0.6087    0.8258 H   0  0  0  0  0  0  0  0  0  0  0  0
    0.6728    0.2638    3.8535 H   0  0  0  0  0  0  0  0  0  0  0  0
    0.8479    2.8789   -0.5638 H   0  0  0  0  0  0  0  0  0  0  0  0
   -0.0037    0.0013    0.0010 H   0  0  0  0  0  0  0  0  0  0  0  0
   -2.0065    1.7626   -0.8333 H   0  0  0  0  0  0  0  0  0  0  0  0
    0.2955    2.1397    2.1996 H   0  0  0  0  0  0  0  0  0  0  0  0
   -1.5021    3.9795   -1.8905 H   0  0  0  0  0  0  0  0  0  0  0  0
   -0.9898    4.5934   -0.2971 H   0  0  0  0  0  0  0  0  0  0  0  0
   -6.9669    5.1495    3.3901 H   0  0  0  0  0  0  0  0  0  0  0  0
   -8.4779    4.6292    2.6287 H   0  0  0  0  0  0  0  0  0  0  0  0
   -7.6242    5.2954    0.3752 H   0  0  0  0  0  0  0  0  0  0  0  0
   -2.7574   -2.8661    5.1336 H   0  0  0  0  0  0  0  0  0  0  0  0
   -4.3291   -3.2958    4.5139 H   0  0  0  0  0  0  0  0  0  0  0  0
   -8.5344    7.0770    2.0389 H   0  0  0  0  0  0  0  0  0  0  0  0
   -7.2707    7.7810    1.0585 H   0  0  0  0  0  0  0  0  0  0  0  0
   -5.9365    5.1637   -0.9409 H   0  0  0  0  0  0  0  0  0  0  0  0
    0.0978    2.2810   -2.6159 H   0  0  0  0  0  0  0  0  0  0  0  0
    2.2034    0.5869   -0.2181 H   0  0  0  0  0  0  0  0  0  0  0  0
   -7.4136    2.8179    1.0976 H   0  0  0  0  0  0  0  0  0  0  0  0
  1 14  2  0  0  0  0
  1 15  1  0  0  0  0
  1 30  1  0  0  0  0
  2 16  2  0  0  0  0
  2 17  1  0  0  0  0
  2 31  1  0  0  0  0
  3  4  2  0  0  0  0
  3  5  1  0  0  0  0
  3 16  1  0  0  0  0
  4 14  1  0  0  0  0
  4 17  1  0  0  0  0
  5 15  2  0  0  0  0
  5 18  1  0  0  0  0
  6 13  1  0  0  0  0
  6 20  1  0  0  0  0
  6 21  2  0  0  0  0
  7  8  1  1  0  0  0
  7 25  1  0  0  0  0
  7 32  1  0  0  0  0
  8 10  1  1  0  0  0
  8 26  1  0  0  0  0
  8 33  1  0  0  0  0
  9  7  1  6  0  0  0
  9 11  1  0  0  0  0
  9 24  1  0  0  0  0
  9 34  1  0  0  0  0
 10 17  1  0  0  0  0
 10 24  1  0  0  0  0
 10 35  1  1  0  0  0
 11 27  1  0  0  0  0
 11 36  1  0  0  0  0
 11 37  1  0  0  0  0
 12 13  1  0  0  0  0
 12 28  1  0  0  0  0
 12 38  1  0  0  0  0
 12 39  1  0  0  0  0
 13 19  1  0  0  0  0
 13 40  1  6  0  0  0
 18 41  1  0  0  0  0
 18 42  1  0  0  0  0
 19 43  1  0  0  0  0
 19 44  1  0  0  0  0
 20 29  1  0  0  0  0
 20 45  1  0  0  0  0
 22 29  2  0  0  0  0
 23 29  2  0  0  0  0
 25 46  1  0  0  0  0
 26 47  1  0  0  0  0
 27 29  1  0  0  0  0
 28 48  1  0  0  0  0
M  END
$$$$
DrugBank_5034
 OpenBabel01151909533D

 21 22  0  0  0  0  0  0  0  0999 V2000
   -1.2900    0.5390   -2.9515 C   0  0  0  0  0  0  0  0  0  0  0  0
   -2.0462   -0.4935   -2.3250 C   0  0  0  0  0  0  0  0  0  0  0  0
   -1.4316   -2.3924    0.8423 C   0  0  0  0  0  0  0  0  0  0  0  0
   -2.0739   -3.5482    1.3729 C   0  0  0  0  0  0  0  0  0  0  0  0
   -0.0454    0.6880   -2.3804 C   0  0  0  0  0  0  0  0  0  0  0  0
   -1.3504   -1.0945   -1.2990 C   0  0  0  0  0  0  0  0  0  0  0  0
   -1.7934   -2.1538   -0.4653 C   0  0  0  0  0  0  0  0  0  0  0  0
   -2.9024   -4.1490    0.4506 C   0  0  0  0  0  0  0  0  0  0  0  0
   -3.7402   -5.3566    0.6153 C   0  0  0  0  0  0  0  0  0  0  0  0
   -5.1448   -5.0480    0.7637 N   0  0  0  0  0  0  0  0  0  0  0  0
    0.2076   -0.4141   -1.0944 S   0  0  0  0  0  0  0  0  0  0  0  0
   -2.9032   -3.3204   -1.0480 S   0  0  0  0  0  0  0  0  0  0  0  0
   -1.6407    1.1412   -3.7794 H   0  0  0  0  0  0  0  0  0  0  0  0
   -3.0494   -0.7752   -2.6203 H   0  0  0  0  0  0  0  0  0  0  0  0
   -0.7402   -1.7724    1.4000 H   0  0  0  0  0  0  0  0  0  0  0  0
   -1.9336   -3.9164    2.3814 H   0  0  0  0  0  0  0  0  0  0  0  0
    0.7273    1.3913   -2.6567 H   0  0  0  0  0  0  0  0  0  0  0  0
   -3.6510   -6.0367   -0.2492 H   0  0  0  0  0  0  0  0  0  0  0  0
   -3.4489   -5.9466    1.5009 H   0  0  0  0  0  0  0  0  0  0  0  0
   -5.7312   -5.6916    1.2634 H   0  0  0  0  0  0  0  0  0  0  0  0
   -5.5413   -4.3168    0.2014 H   0  0  0  0  0  0  0  0  0  0  0  0
  1  2  1  0  0  0  0
  1  5  2  0  0  0  0
  1 13  1  0  0  0  0
  2  6  2  0  0  0  0
  2 14  1  0  0  0  0
  3  4  1  0  0  0  0
  3  7  2  0  0  0  0
  3 15  1  0  0  0  0
  4  8  2  0  0  0  0
  4 16  1  0  0  0  0
  5 11  1  0  0  0  0
  5 17  1  0  0  0  0
  6  7  1  0  0  0  0
  6 11  1  0  0  0  0
  7 12  1  0  0  0  0
  8  9  1  0  0  0  0
  8 12  1  0  0  0  0
  9 10  1  0  0  0  0
  9 18  1  0  0  0  0
  9 19  1  0  0  0  0
 10 20  1  0  0  0  0
 10 21  1  0  0  0  0
M  END
$$$$
DrugBank_2397
 OpenBabel01151909533D

 27 26  0  0  1  0  0  0  0  0999 V2000
    2.5106   -1.5273    0.7855 C   0  0  0  0  0  0  0  0  0  0  0  0
    1.7491    1.6586   -1.8147 C   0  0  0  0  0  0  0  0  0  0  0  0
    0.6899    0.1374    0.2052 C   0  0  0  0  0  0  0  0  0  0  0  0
    2.6030    2.8099   -2.3126 C   0  0  0  0  0  0  0  0  0  0  0  0
    1.3186   -1.2229   -0.1067 C   0  0  2  0  0  0  0  0  0  0  0  0
    0.3444   -2.2853   -0.0843 N   0  0  0  0  0  0  0  0  0  0  0  0
    1.0579    3.1518   -4.7366 N   0  0  0  0  0  0  0  0  0  0  0  0
    2.4277   -2.1242    1.8521 O   0  0  0  0  0  0  0  0  0  0  0  0
    3.6819   -1.0584    0.2928 O   0  0  0  0  0  0  0  0  0  0  0  0
    3.2452    1.5153   -4.5076 O   0  0  0  0  0  0  0  0  0  0  0  0
    3.5964    4.1159   -4.3630 O   0  0  0  0  0  0  0  0  0  0  0  0
    1.8318    1.5423   -0.0141 S   0  0  0  0  0  0  0  0  0  0  0  0
    2.5613    2.9116   -4.0757 S   0  0  0  0  0  0  0  0  0  0  0  0
    2.0916    0.7107   -2.2424 H   0  0  0  0  0  0  0  0  0  0  0  0
    0.7040    1.7950   -2.1109 H   0  0  0  0  0  0  0  0  0  0  0  0
    0.3443    0.1578    1.2444 H   0  0  0  0  0  0  0  0  0  0  0  0
   -0.1794    0.3132   -0.4372 H   0  0  0  0  0  0  0  0  0  0  0  0
    3.6548    2.6870   -2.0344 H   0  0  0  0  0  0  0  0  0  0  0  0
    2.2454    3.7744   -1.9385 H   0  0  0  0  0  0  0  0  0  0  0  0
    1.7039   -1.2073   -1.1333 H   0  0  0  0  0  0  0  0  0  0  0  0
    0.6577   -3.2317    0.0497 H   0  0  0  0  0  0  0  0  0  0  0  0
   -0.5912   -2.0957   -0.4017 H   0  0  0  0  0  0  0  0  0  0  0  0
    0.4210    2.3965   -4.4881 H   0  0  0  0  0  0  0  0  0  0  0  0
    0.6260    4.0081   -4.3928 H   0  0  0  0  0  0  0  0  0  0  0  0
    3.5625   -0.6073   -0.5701 H   0  0  0  0  0  0  0  0  0  0  0  0
    4.1684    1.3746   -4.1913 H   0  0  0  0  0  0  0  0  0  0  0  0
    4.5188    3.9723   -4.0458 H   0  0  0  0  0  0  0  0  0  0  0  0
  1  5  1  0  0  0  0
  1  8  2  0  0  0  0
  1  9  1  0  0  0  0
  2  4  1  0  0  0  0
  2 12  1  0  0  0  0
  2 14  1  0  0  0  0
  2 15  1  0  0  0  0
  3  5  1  0  0  0  0
  3 12  1  0  0  0  0
  3 16  1  0  0  0  0
  3 17  1  0  0  0  0
  4 13  1  0  0  0  0
  4 18  1  0  0  0  0
  4 19  1  0  0  0  0
  5  6  1  0  0  0  0
  5 20  1  6  0  0  0
  6 21  1  0  0  0  0
  6 22  1  0  0  0  0
  7 13  1  0  0  0  0
  7 23  1  0  0  0  0
  7 24  1  0  0  0  0
  9 25  1  0  0  0  0
 10 13  1  0  0  0  0
 10 26  1  0  0  0  0
 11 13  1  0  0  0  0
 11 27  1  0  0  0  0
M  END
$$$$
DrugBank_5043
 OpenBabel01151909533D

 25 25  0  0  0  0  0  0  0  0999 V2000
    1.8851   -1.0363   -0.1124 C   0  0  0  0  0  0  0  0  0  0  0  0
    2.8783   -1.6520    2.0022 C   0  0  0  0  0  0  0  0  0  0  0  0
    0.8066   -0.4630    0.5610 C   0  0  0  0  0  0  0  0  0  0  0  0
    1.7997   -1.0786    2.6757 C   0  0  0  0  0  0  0  0  0  0  0  0
    2.9210   -1.6309    0.6081 C   0  0  0  0  0  0  0  0  0  0  0  0
    0.7638   -0.4841    1.9551 C   0  0  0  0  0  0  0  0  0  0  0  0
    4.0745   -2.2433   -0.1117 C   0  0  0  0  0  0  0  0  0  0  0  0
   -0.6454   -0.4925    3.8707 C   0  0  0  0  0  0  0  0  0  0  0  0
   -2.1341   -0.3093    4.0901 C   0  0  0  0  0  0  0  0  0  0  0  0
   -2.7072   -2.5708    2.8113 O   0  0  0  0  0  0  0  0  0  0  0  0
   -4.5710   -0.7623    3.1241 O   0  0  0  0  0  0  0  0  0  0  0  0
   -0.2881    0.0765    2.6120 O   0  0  0  0  0  0  0  0  0  0  0  0
   -3.1241   -1.1070    2.8017 P   0  0  1  0  0  0  0  0  0  0  0  0
    1.9102   -1.0154   -1.1986 H   0  0  0  0  0  0  0  0  0  0  0  0
    3.6809   -2.1132    2.5719 H   0  0  0  0  0  0  0  0  0  0  0  0
    0.0027   -0.0010   -0.0060 H   0  0  0  0  0  0  0  0  0  0  0  0
    1.7724   -1.0980    3.7615 H   0  0  0  0  0  0  0  0  0  0  0  0
    4.8663   -1.5001   -0.2668 H   0  0  0  0  0  0  0  0  0  0  0  0
    4.4944   -3.0862    0.4525 H   0  0  0  0  0  0  0  0  0  0  0  0
    3.7701   -2.6367   -1.0904 H   0  0  0  0  0  0  0  0  0  0  0  0
   -0.3903   -1.5562    3.8526 H   0  0  0  0  0  0  0  0  0  0  0  0
   -0.0706    0.0062    4.6567 H   0  0  0  0  0  0  0  0  0  0  0  0
   -2.4373   -0.7376    5.0509 H   0  0  0  0  0  0  0  0  0  0  0  0
   -2.3842    0.7559    4.0895 H   0  0  0  0  0  0  0  0  0  0  0  0
   -2.7104   -0.4734    1.6052 H   0  0  0  0  0  0  0  0  0  0  0  0
  1  3  2  0  0  0  0
  1  5  1  0  0  0  0
  1 14  1  0  0  0  0
  2  4  1  0  0  0  0
  2  5  2  0  0  0  0
  2 15  1  0  0  0  0
  3  6  1  0  0  0  0
  3 16  1  0  0  0  0
  4  6  2  0  0  0  0
  4 17  1  0  0  0  0
  5  7  1  0  0  0  0
  6 12  1  0  0  0  0
  7 18  1  0  0  0  0
  7 19  1  0  0  0  0
  7 20  1  0  0  0  0
  8  9  1  0  0  0  0
  8 12  1  0  0  0  0
  8 21  1  0  0  0  0
  8 22  1  0  0  0  0
  9 13  1  0  0  0  0
  9 23  1  0  0  0  0
  9 24  1  0  0  0  0
 10 13  1  0  0  0  0
 11 13  2  0  0  0  0
 13 25  1  6  0  0  0
M  END
$$$$
DrugBank_2429
 OpenBabel01151909533D

 66 69  0  0  1  0  0  0  0  0999 V2000
   12.3328   -6.8073    6.4902 C   0  0  0  0  0  0  0  0  0  0  0  0
   11.5515   -6.0548    7.3670 C   0  0  0  0  0  0  0  0  0  0  0  0
   11.7242   -7.5759    5.4980 C   0  0  0  0  0  0  0  0  0  0  0  0
   10.1615   -6.0710    7.2517 C   0  0  0  0  0  0  0  0  0  0  0  0
   10.3343   -7.5922    5.3827 C   0  0  0  0  0  0  0  0  0  0  0  0
    9.5528   -6.8397    6.2595 C   0  0  0  0  0  0  0  0  0  0  0  0
    3.9208   -6.9568    4.5797 C   0  0  0  0  0  0  0  0  0  0  0  0
    1.0009   -5.9556    4.5160 C   0  0  0  0  0  0  0  0  0  0  0  0
   -6.1990   -4.5554    3.8344 C   0  0  0  0  0  0  0  0  0  0  0  0
    5.4097   -6.7098    4.5803 C   0  0  0  0  0  0  0  0  0  0  0  0
    1.4188   -5.5919    6.9475 C   0  0  0  0  0  0  0  0  0  0  0  0
    2.7789   -5.3079    7.5818 C   0  0  0  0  0  0  0  0  0  0  0  0
   -2.9683   -5.8047    4.7036 C   0  0  0  0  0  0  0  0  0  0  0  0
   -2.9701   -4.9120    2.3503 C   0  0  0  0  0  0  0  0  0  0  0  0
   -4.0617   -4.7992    5.0620 C   0  0  0  0  0  0  0  0  0  0  0  0
   -4.0638   -3.9227    2.7502 C   0  0  0  0  0  0  0  0  0  0  0  0
    5.1634   -5.4714    6.6960 C   0  0  0  0  0  0  0  0  0  0  0  0
    1.7462   -6.4441    5.7187 C   0  0  2  0  0  0  0  0  0  0  0  0
   -2.0920   -5.2897    3.5523 C   0  0  2  0  0  0  0  0  0  0  0  0
    3.7055   -5.2186    6.3750 C   0  0  1  0  0  0  0  0  0  0  0  0
    8.0605   -6.8577    6.1353 C   0  0  0  0  0  0  0  0  0  0  0  0
   -1.0472   -6.3302    3.1567 C   0  0  0  0  0  0  0  0  0  0  0  0
   -6.9158   -4.3796    4.9126 N   0  0  0  0  0  0  0  0  0  0  0  0
    3.1656   -6.2199    5.4702 N   0  0  0  0  0  0  0  0  0  0  0  0
   -4.8381   -4.4613    3.8688 N   0  0  0  0  0  0  0  0  0  0  0  0
    5.8662   -5.5599    5.3926 N   0  0  0  0  0  0  0  0  0  0  0  0
   -6.6739   -4.8445    2.5756 N   0  0  0  0  0  0  0  0  0  0  0  0
   -0.1734   -6.6396    4.2657 N   0  0  0  0  0  0  0  0  0  0  0  0
    3.4475   -7.8164    3.8321 O   0  0  0  0  0  0  0  0  0  0  0  0
    1.4546   -5.0246    3.8609 O   0  0  0  0  0  0  0  0  0  0  0  0
    7.8498   -4.2666    6.3973 O   0  0  0  0  0  0  0  0  0  0  0  0
    8.0548   -5.2474    4.0775 O   0  0  0  0  0  0  0  0  0  0  0  0
   -8.2750   -4.5269    4.6184 O   0  0  0  0  0  0  0  0  0  0  0  0
    7.5578   -5.3068    5.4350 S   0  0  0  0  0  0  0  0  0  0  0  0
   13.4152   -6.7935    6.5793 H   0  0  0  0  0  0  0  0  0  0  0  0
   12.0252   -5.4553    8.1389 H   0  0  0  0  0  0  0  0  0  0  0  0
   12.3323   -8.1611    4.8145 H   0  0  0  0  0  0  0  0  0  0  0  0
    9.5606   -5.4817    7.9394 H   0  0  0  0  0  0  0  0  0  0  0  0
    9.8688   -8.1941    4.6067 H   0  0  0  0  0  0  0  0  0  0  0  0
    5.8908   -7.6239    4.9474 H   0  0  0  0  0  0  0  0  0  0  0  0
    5.7122   -6.5411    3.5407 H   0  0  0  0  0  0  0  0  0  0  0  0
    0.7490   -6.1140    7.6382 H   0  0  0  0  0  0  0  0  0  0  0  0
    0.9328   -4.6475    6.6732 H   0  0  0  0  0  0  0  0  0  0  0  0
    2.7801   -4.3944    8.1834 H   0  0  0  0  0  0  0  0  0  0  0  0
    3.0592   -6.1462    8.2317 H   0  0  0  0  0  0  0  0  0  0  0  0
   -2.3511   -6.0028    5.5876 H   0  0  0  0  0  0  0  0  0  0  0  0
   -3.4332   -6.7568    4.4161 H   0  0  0  0  0  0  0  0  0  0  0  0
   -3.4347   -5.8157    1.9344 H   0  0  0  0  0  0  0  0  0  0  0  0
   -2.3542   -4.4735    1.5565 H   0  0  0  0  0  0  0  0  0  0  0  0
   -4.7032   -5.2278    5.8409 H   0  0  0  0  0  0  0  0  0  0  0  0
   -3.6186   -3.8862    5.4772 H   0  0  0  0  0  0  0  0  0  0  0  0
   -3.6211   -2.9634    3.0440 H   0  0  0  0  0  0  0  0  0  0  0  0
   -4.7066   -3.7276    1.8838 H   0  0  0  0  0  0  0  0  0  0  0  0
    5.5614   -4.6426    7.2908 H   0  0  0  0  0  0  0  0  0  0  0  0
    5.3071   -6.4041    7.2543 H   0  0  0  0  0  0  0  0  0  0  0  0
    1.5615   -7.5119    5.8682 H   0  0  0  0  0  0  0  0  0  0  0  0
   -1.5521   -4.3986    3.8900 H   0  0  0  0  0  0  0  0  0  0  0  0
    3.5840   -4.2489    5.8739 H   0  0  0  0  0  0  0  0  0  0  0  0
    7.5697   -6.9683    7.1063 H   0  0  0  0  0  0  0  0  0  0  0  0
    7.7139   -7.6579    5.4752 H   0  0  0  0  0  0  0  0  0  0  0  0
   -0.4264   -5.9576    2.3364 H   0  0  0  0  0  0  0  0  0  0  0  0
   -1.5270   -7.2612    2.8407 H   0  0  0  0  0  0  0  0  0  0  0  0
   -6.0468   -4.9660    1.7880 H   0  0  0  0  0  0  0  0  0  0  0  0
   -7.6679   -4.9439    2.4004 H   0  0  0  0  0  0  0  0  0  0  0  0
   -0.4351   -7.3959    4.8909 H   0  0  0  0  0  0  0  0  0  0  0  0
   -8.6807   -4.3741    5.4885 H   0  0  0  0  0  0  0  0  0  0  0  0
  1  2  2  0  0  0  0
  1  3  1  0  0  0  0
  1 35  1  0  0  0  0
  2  4  1  0  0  0  0
  2 36  1  0  0  0  0
  3  5  2  0  0  0  0
  3 37  1  0  0  0  0
  4  6  2  0  0  0  0
  4 38  1  0  0  0  0
  5  6  1  0  0  0  0
  5 39  1  0  0  0  0
  6 21  1  0  0  0  0
  7 10  1  0  0  0  0
  7 24  1  0  0  0  0
  7 29  2  0  0  0  0
  8 18  1  0  0  0  0
  8 28  1  0  0  0  0
  8 30  2  0  0  0  0
  9 23  2  0  0  0  0
  9 25  1  0  0  0  0
  9 27  1  0  0  0  0
 10 26  1  0  0  0  0
 10 40  1  0  0  0  0
 10 41  1  0  0  0  0
 11 12  1  0  0  0  0
 11 18  1  0  0  0  0
 11 42  1  0  0  0  0
 11 43  1  0  0  0  0
 12 20  1  0  0  0  0
 12 44  1  0  0  0  0
 12 45  1  0  0  0  0
 13 15  1  0  0  0  0
 13 19  1  0  0  0  0
 13 46  1  0  0  0  0
 13 47  1  0  0  0  0
 14 16  1  0  0  0  0
 14 19  1  0  0  0  0
 14 48  1  0  0  0  0
 14 49  1  0  0  0  0
 15 25  1  0  0  0  0
 15 50  1  0  0  0  0
 15 51  1  0  0  0  0
 16 25  1  0  0  0  0
 16 52  1  0  0  0  0
 16 53  1  0  0  0  0
 17 20  1  0  0  0  0
 17 26  1  0  0  0  0
 17 54  1  0  0  0  0
 17 55  1  0  0  0  0
 18 24  1  0  0  0  0
 18 56  1  1  0  0  0
 19 22  1  0  0  0  0
 19 57  1  1  0  0  0
 20 24  1  0  0  0  0
 20 58  1  6  0  0  0
 21 34  1  0  0  0  0
 21 59  1  0  0  0  0
 21 60  1  0  0  0  0
 22 28  1  0  0  0  0
 22 61  1  0  0  0  0
 22 62  1  0  0  0  0
 23 33  1  0  0  0  0
 26 34  1  0  0  0  0
 27 63  1  0  0  0  0
 27 64  1  0  0  0  0
 28 65  1  0  0  0  0
 31 34  2  0  0  0  0
 32 34  2  0  0  0  0
 33 66  1  0  0  0  0
M  END
$$$$
DrugBank_5067
 OpenBabel01151909533D

 53 56  0  0  0  0  0  0  0  0999 V2000
    4.5802    2.1130    4.2827 C   0  0  0  0  0  0  0  0  0  0  0  0
    3.5888    2.0204    5.2596 C   0  0  0  0  0  0  0  0  0  0  0  0
    4.6508    1.1585    3.2680 C   0  0  0  0  0  0  0  0  0  0  0  0
    2.6681    0.9733    5.2218 C   0  0  0  0  0  0  0  0  0  0  0  0
    3.7301    0.1114    3.2303 C   0  0  0  0  0  0  0  0  0  0  0  0
   -0.7543   -3.4422    6.7061 C   0  0  0  0  0  0  0  0  0  0  0  0
   -1.3862   -2.4361    4.6024 C   0  0  0  0  0  0  0  0  0  0  0  0
   -1.9929   -3.0940    7.2447 C   0  0  0  0  0  0  0  0  0  0  0  0
   -2.6248   -2.0879    5.1410 C   0  0  0  0  0  0  0  0  0  0  0  0
    2.7388    0.0187    4.2072 C   0  0  0  0  0  0  0  0  0  0  0  0
   -0.4509   -3.1133    5.3849 C   0  0  0  0  0  0  0  0  0  0  0  0
   -2.9282   -2.4168    6.4622 C   0  0  0  0  0  0  0  0  0  0  0  0
    3.4094   -2.9897    4.2850 C   0  0  0  0  0  0  0  0  0  0  0  0
    2.3185   -2.2611    6.4657 C   0  0  0  0  0  0  0  0  0  0  0  0
    5.4245   -3.3170    3.9502 C   0  0  0  0  0  0  0  0  0  0  0  0
    2.1412   -1.5011    8.3815 C   0  0  0  0  0  0  0  0  0  0  0  0
    6.8912   -3.3976    3.9276 C   0  0  0  0  0  0  0  0  0  0  0  0
    1.8348   -0.7985    9.6349 C   0  0  0  0  0  0  0  0  0  0  0  0
    1.7548   -1.1014    4.1663 C   0  0  0  0  0  0  0  0  0  0  0  0
    0.8991   -3.4928    4.7981 C   0  0  0  0  0  0  0  0  0  0  0  0
    2.0914   -2.4605    4.9338 C   0  0  0  0  0  0  0  0  0  0  0  0
    4.6414   -2.6760    4.7806 N   0  0  0  0  0  0  0  0  0  0  0  0
    1.6513   -1.3110    7.1826 N   0  0  0  0  0  0  0  0  0  0  0  0
    3.4007   -3.7804    3.2077 N   0  0  0  0  0  0  0  0  0  0  0  0
    3.1799   -3.0127    7.1577 N   0  0  0  0  0  0  0  0  0  0  0  0
   -4.1960   -2.0605    7.0134 N   0  0  0  0  0  0  0  0  0  0  0  0
   -3.8155    0.4267    6.3812 O   0  0  0  0  0  0  0  0  0  0  0  0
   -5.8289   -0.2035    7.7471 O   0  0  0  0  0  0  0  0  0  0  0  0
    4.7647   -4.0026    2.9801 O   0  0  0  0  0  0  0  0  0  0  0  0
    3.0607   -2.4988    8.4552 O   0  0  0  0  0  0  0  0  0  0  0  0
   -3.5746   -0.1780    8.7865 O   0  0  0  0  0  0  0  0  0  0  0  0
   -4.4283   -0.3901    7.4132 S   0  0  0  0  0  0  0  0  0  0  0  0
    5.2962    2.9292    4.3115 H   0  0  0  0  0  0  0  0  0  0  0  0
    3.5330    2.7642    6.0491 H   0  0  0  0  0  0  0  0  0  0  0  0
    5.4218    1.2309    2.5067 H   0  0  0  0  0  0  0  0  0  0  0  0
    1.8992    0.9090    5.9873 H   0  0  0  0  0  0  0  0  0  0  0  0
    3.7929   -0.6278    2.4360 H   0  0  0  0  0  0  0  0  0  0  0  0
   -0.0307   -3.9676    7.3239 H   0  0  0  0  0  0  0  0  0  0  0  0
   -1.1581   -2.1751    3.5723 H   0  0  0  0  0  0  0  0  0  0  0  0
   -2.2198   -3.3554    8.2751 H   0  0  0  0  0  0  0  0  0  0  0  0
   -3.3463   -1.5593    4.5232 H   0  0  0  0  0  0  0  0  0  0  0  0
    7.2586   -4.2494    4.5277 H   0  0  0  0  0  0  0  0  0  0  0  0
    7.2901   -3.5202    2.9033 H   0  0  0  0  0  0  0  0  0  0  0  0
    7.3689   -2.4833    4.3267 H   0  0  0  0  0  0  0  0  0  0  0  0
    1.0035   -1.2835   10.1773 H   0  0  0  0  0  0  0  0  0  0  0  0
    2.7012   -0.7656   10.3215 H   0  0  0  0  0  0  0  0  0  0  0  0
    1.5471    0.2562    9.4663 H   0  0  0  0  0  0  0  0  0  0  0  0
    1.5045   -1.3257    3.1140 H   0  0  0  0  0  0  0  0  0  0  0  0
    0.7951   -0.7208    4.5710 H   0  0  0  0  0  0  0  0  0  0  0  0
    1.1908   -4.4369    5.2823 H   0  0  0  0  0  0  0  0  0  0  0  0
    0.7410   -3.7717    3.7504 H   0  0  0  0  0  0  0  0  0  0  0  0
   -4.5304   -2.7121    7.7440 H   0  0  0  0  0  0  0  0  0  0  0  0
   -2.5980   -0.2788    8.6954 H   0  0  0  0  0  0  0  0  0  0  0  0
  1  2  2  0  0  0  0
  1  3  1  0  0  0  0
  1 33  1  0  0  0  0
  2  4  1  0  0  0  0
  2 34  1  0  0  0  0
  3  5  2  0  0  0  0
  3 35  1  0  0  0  0
  4 10  2  0  0  0  0
  4 36  1  0  0  0  0
  5 10  1  0  0  0  0
  5 37  1  0  0  0  0
  6  8  2  0  0  0  0
  6 11  1  0  0  0  0
  6 38  1  0  0  0  0
  7  9  1  0  0  0  0
  7 11  2  0  0  0  0
  7 39  1  0  0  0  0
  8 12  1  0  0  0  0
  8 40  1  0  0  0  0
  9 12  2  0  0  0  0
  9 41  1  0  0  0  0
 10 19  1  0  0  0  0
 11 20  1  0  0  0  0
 12 26  1  0  0  0  0
 13 21  1  0  0  0  0
 13 22  1  0  0  0  0
 13 24  2  0  0  0  0
 14 21  1  0  0  0  0
 14 23  1  0  0  0  0
 14 25  2  0  0  0  0
 15 17  1  0  0  0  0
 15 22  2  0  0  0  0
 15 29  1  0  0  0  0
 16 18  1  0  0  0  0
 16 23  2  0  0  0  0
 16 30  1  0  0  0  0
 17 42  1  0  0  0  0
 17 43  1  0  0  0  0
 17 44  1  0  0  0  0
 18 45  1  0  0  0  0
 18 46  1  0  0  0  0
 18 47  1  0  0  0  0
 19 21  1  0  0  0  0
 19 48  1  0  0  0  0
 19 49  1  0  0  0  0
 20 21  1  0  0  0  0
 20 50  1  0  0  0  0
 20 51  1  0  0  0  0
 24 29  1  0  0  0  0
 25 30  1  0  0  0  0
 26 32  1  0  0  0  0
 26 52  1  0  0  0  0
 27 32  2  0  0  0  0
 28 32  2  0  0  0  0
 31 32  1  0  0  0  0
 31 53  1  0  0  0  0
M  END
$$$$
DrugBank_2440
 OpenBabel01151909533D

 17 16  0  0  1  0  0  0  0  0999 V2000
   -1.7171   -0.9305    0.9504 C   0  0  0  0  0  0  0  0  0  0  0  0
   -2.3152    0.4600   -1.0766 C   0  0  0  0  0  0  0  0  0  0  0  0
   -1.2458   -0.3351   -0.3599 C   0  0  1  0  0  0  0  0  0  0  0  0
   -0.1347    0.5741   -0.0746 N   0  0  0  0  0  0  0  0  0  0  0  0
   -2.8546   -0.8608    1.3972 O   0  0  0  0  0  0  0  0  0  0  0  0
   -2.2715    1.6584   -1.3195 O   0  0  0  0  0  0  0  0  0  0  0  0
   -5.3561    1.1005   -1.4224 O   0  0  0  0  0  0  0  0  0  0  0  0
   -4.3120    0.4042   -3.6089 O   0  0  0  0  0  0  0  0  0  0  0  0
   -0.7161   -1.5828    1.5995 O   0  0  0  0  0  0  0  0  0  0  0  0
   -5.5931   -1.2378   -2.2439 O   0  0  0  0  0  0  0  0  0  0  0  0
   -3.3344   -0.3709   -1.4403 O   0  0  0  0  0  0  0  0  0  0  0  0
   -4.6762    0.1100   -2.2358 S   0  0  0  0  0  0  0  0  0  0  0  0
   -0.8687   -1.1315   -1.0104 H   0  0  0  0  0  0  0  0  0  0  0  0
    0.0726    1.2807   -0.7443 H   0  0  0  0  0  0  0  0  0  0  0  0
    0.4894    0.3299    0.6615 H   0  0  0  0  0  0  0  0  0  0  0  0
    0.1521   -1.5702    1.1425 H   0  0  0  0  0  0  0  0  0  0  0  0
   -5.1580   -2.0417   -2.6136 H   0  0  0  0  0  0  0  0  0  0  0  0
  1  3  1  0  0  0  0
  1  5  2  0  0  0  0
  1  9  1  0  0  0  0
  2  3  1  0  0  0  0
  2  6  2  0  0  0  0
  2 11  1  0  0  0  0
  3  4  1  0  0  0  0
  3 13  1  6  0  0  0
  4 14  1  0  0  0  0
  4 15  1  0  0  0  0
  7 12  2  0  0  0  0
  8 12  2  0  0  0  0
  9 16  1  0  0  0  0
 10 12  1  0  0  0  0
 10 17  1  0  0  0  0
 11 12  1  0  0  0  0
M  END
$$$$
DrugBank_5076
 OpenBabel01151909533D

 66 67  0  0  1  0  0  0  0  0999 V2000
    0.9102   -3.4883    5.3124 C   0  0  0  0  0  0  0  0  0  0  0  0
    1.9670   -2.7158    5.7941 C   0  0  0  0  0  0  0  0  0  0  0  0
    0.9166   -3.9318    3.9899 C   0  0  0  0  0  0  0  0  0  0  0  0
   -2.3769    2.0428    3.5200 C   0  0  0  0  0  0  0  0  0  0  0  0
    3.0301   -2.3866    4.9533 C   0  0  0  0  0  0  0  0  0  0  0  0
    1.9798   -3.6026    3.1491 C   0  0  0  0  0  0  0  0  0  0  0  0
   -1.1526    2.2080    4.1677 C   0  0  0  0  0  0  0  0  0  0  0  0
   -2.6974    0.8169    2.9367 C   0  0  0  0  0  0  0  0  0  0  0  0
   -0.5694   -0.0784    3.6486 C   0  0  0  0  0  0  0  0  0  0  0  0
    3.0365   -2.8300    3.6307 C   0  0  0  0  0  0  0  0  0  0  0  0
   -0.2489    1.1475    4.2320 C   0  0  0  0  0  0  0  0  0  0  0  0
   -1.7937   -0.2436    3.0010 C   0  0  0  0  0  0  0  0  0  0  0  0
   -3.3565   -2.2172    3.0262 C   0  0  0  0  0  0  0  0  0  0  0  0
   -0.8702    1.3607   -2.1441 C   0  0  0  0  0  0  0  0  0  0  0  0
   -0.6803    2.7182   -0.0507 C   0  0  0  0  0  0  0  0  0  0  0  0
    4.1855   -2.4743    2.7211 C   0  0  0  0  0  0  0  0  0  0  0  0
    1.0593    1.3245    4.9260 C   0  0  0  0  0  0  0  0  0  0  0  0
    3.9882   -1.1619    1.9512 C   0  0  0  0  0  0  0  0  0  0  0  0
   -2.3557   -1.4808    0.8488 C   0  0  0  0  0  0  0  0  0  0  0  0
    2.7407   -1.1100    1.0768 C   0  0  0  0  0  0  0  0  0  0  0  0
   -2.1430   -1.5800    2.3642 C   0  0  1  0  0  0  0  0  0  0  0  0
   -1.0008    1.3351   -0.6202 C   0  0  0  0  0  0  0  0  0  0  0  0
   -0.1708    0.1969    0.0088 C   0  0  2  0  0  0  0  0  0  0  0  0
    1.0859    0.6840    6.2165 N   0  0  0  0  0  0  0  0  0  0  0  0
    1.1451    0.1383   -0.6755 N   0  0  0  0  0  0  0  0  0  0  0  0
   -4.5155   -2.0919    2.6530 O   0  0  0  0  0  0  0  0  0  0  0  0
    0.1179   -2.5542    0.3470 O   0  0  0  0  0  0  0  0  0  0  0  0
    2.4237    1.4841    1.1196 O   0  0  0  0  0  0  0  0  0  0  0  0
    3.6838    0.4321   -0.7941 O   0  0  0  0  0  0  0  0  0  0  0  0
   -3.0150   -2.9643    4.1096 O   0  0  0  0  0  0  0  0  0  0  0  0
   -1.3559   -1.6119   -1.5948 O   0  0  0  0  0  0  0  0  0  0  0  0
   -0.8289   -1.4680   -0.0727 P   0  0  1  0  0  0  0  0  0  0  0  0
    2.5950    0.4075    0.1640 S   0  0  0  0  0  0  0  0  0  0  0  0
    0.0831   -3.7457    5.9677 H   0  0  0  0  0  0  0  0  0  0  0  0
    1.9627   -2.3714    6.8242 H   0  0  0  0  0  0  0  0  0  0  0  0
    0.0946   -4.5342    3.6149 H   0  0  0  0  0  0  0  0  0  0  0  0
   -3.0806    2.8686    3.4701 H   0  0  0  0  0  0  0  0  0  0  0  0
    3.8492   -1.7841    5.3372 H   0  0  0  0  0  0  0  0  0  0  0  0
    1.9762   -3.9524    2.1201 H   0  0  0  0  0  0  0  0  0  0  0  0
   -0.9117    3.1667    4.6198 H   0  0  0  0  0  0  0  0  0  0  0  0
   -3.6533    0.6974    2.4334 H   0  0  0  0  0  0  0  0  0  0  0  0
    0.1344   -0.9059    3.6993 H   0  0  0  0  0  0  0  0  0  0  0  0
    0.1688    1.5535   -2.4342 H   0  0  0  0  0  0  0  0  0  0  0  0
   -1.4871    2.1538   -2.5790 H   0  0  0  0  0  0  0  0  0  0  0  0
   -1.1618    0.4085   -2.5955 H   0  0  0  0  0  0  0  0  0  0  0  0
    0.3690    2.9724   -0.2384 H   0  0  0  0  0  0  0  0  0  0  0  0
   -1.2936    3.4964   -0.5150 H   0  0  0  0  0  0  0  0  0  0  0  0
   -0.8336    2.7554    1.0319 H   0  0  0  0  0  0  0  0  0  0  0  0
    5.1232   -2.4448    3.2883 H   0  0  0  0  0  0  0  0  0  0  0  0
    4.3107   -3.2920    1.9990 H   0  0  0  0  0  0  0  0  0  0  0  0
    1.8829    0.9042    4.3320 H   0  0  0  0  0  0  0  0  0  0  0  0
    1.2917    2.3868    5.0829 H   0  0  0  0  0  0  0  0  0  0  0  0
    4.8633   -0.9767    1.3161 H   0  0  0  0  0  0  0  0  0  0  0  0
    3.9517   -0.3405    2.6776 H   0  0  0  0  0  0  0  0  0  0  0  0
   -2.9344   -2.3394    0.4899 H   0  0  0  0  0  0  0  0  0  0  0  0
   -2.9306   -0.5891    0.5767 H   0  0  0  0  0  0  0  0  0  0  0  0
    2.7819   -1.9075    0.3276 H   0  0  0  0  0  0  0  0  0  0  0  0
    1.8210   -1.2369    1.6536 H   0  0  0  0  0  0  0  0  0  0  0  0
   -1.2925   -2.2533    2.5386 H   0  0  0  0  0  0  0  0  0  0  0  0
   -2.0590    1.1388   -0.4020 H   0  0  0  0  0  0  0  0  0  0  0  0
   -0.0048    0.4294    1.0669 H   0  0  0  0  0  0  0  0  0  0  0  0
    1.7101    1.0351    6.9233 H   0  0  0  0  0  0  0  0  0  0  0  0
    0.6423   -0.2126    6.3259 H   0  0  0  0  0  0  0  0  0  0  0  0
    1.1656   -0.3043   -1.6022 H   0  0  0  0  0  0  0  0  0  0  0  0
   -2.0564   -2.9928    4.3152 H   0  0  0  0  0  0  0  0  0  0  0  0
   -1.8506   -2.4185   -1.8538 H   0  0  0  0  0  0  0  0  0  0  0  0
  1  2  2  0  0  0  0
  1  3  1  0  0  0  0
  1 34  1  0  0  0  0
  2  5  1  0  0  0  0
  2 35  1  0  0  0  0
  3  6  2  0  0  0  0
  3 36  1  0  0  0  0
  4  7  2  0  0  0  0
  4  8  1  0  0  0  0
  4 37  1  0  0  0  0
  5 10  2  0  0  0  0
  5 38  1  0  0  0  0
  6 10  1  0  0  0  0
  6 39  1  0  0  0  0
  7 11  1  0  0  0  0
  7 40  1  0  0  0  0
  8 12  2  0  0  0  0
  8 41  1  0  0  0  0
  9 11  2  0  0  0  0
  9 12  1  0  0  0  0
  9 42  1  0  0  0  0
 10 16  1  0  0  0  0
 11 17  1  0  0  0  0
 12 21  1  0  0  0  0
 13 21  1  0  0  0  0
 13 26  2  0  0  0  0
 13 30  1  0  0  0  0
 14 22  1  0  0  0  0
 14 43  1  0  0  0  0
 14 44  1  0  0  0  0
 14 45  1  0  0  0  0
 15 22  1  0  0  0  0
 15 46  1  0  0  0  0
 15 47  1  0  0  0  0
 15 48  1  0  0  0  0
 16 18  1  0  0  0  0
 16 49  1  0  0  0  0
 16 50  1  0  0  0  0
 17 24  1  0  0  0  0
 17 51  1  0  0  0  0
 17 52  1  0  0  0  0
 18 20  1  0  0  0  0
 18 53  1  0  0  0  0
 18 54  1  0  0  0  0
 19 21  1  0  0  0  0
 19 32  1  0  0  0  0
 19 55  1  0  0  0  0
 19 56  1  0  0  0  0
 20 33  1  0  0  0  0
 20 57  1  0  0  0  0
 20 58  1  0  0  0  0
 21 59  1  1  0  0  0
 22 23  1  0  0  0  0
 22 60  1  0  0  0  0
 23 25  1  0  0  0  0
 23 32  1  0  0  0  0
 23 61  1  1  0  0  0
 24 62  1  0  0  0  0
 24 63  1  0  0  0  0
 25 33  1  0  0  0  0
 25 64  1  0  0  0  0
 28 33  2  0  0  0  0
 29 33  2  0  0  0  0
 30 65  1  0  0  0  0
 31 32  1  0  0  0  0
 31 66  1  0  0  0  0
 32 27  2  1  0  0  0
M  END
$$$$
DrugBank_2465
 OpenBabel01151909533D

 18 18  0  0  0  0  0  0  0  0999 V2000
    1.8851   -1.0363   -0.1124 C   0  0  0  0  0  0  0  0  0  0  0  0
    0.8066   -0.4630    0.5610 C   0  0  0  0  0  0  0  0  0  0  0  0
    1.7997   -1.0786    2.6757 C   0  0  0  0  0  0  0  0  0  0  0  0
    2.8783   -1.6520    2.0022 C   0  0  0  0  0  0  0  0  0  0  0  0
    2.9210   -1.6309    0.6081 C   0  0  0  0  0  0  0  0  0  0  0  0
    0.7638   -0.4841    1.9551 C   0  0  0  0  0  0  0  0  0  0  0  0
    3.9415   -2.2658    2.7893 C   0  0  0  0  0  0  0  0  0  0  0  0
    4.0098   -2.2079   -0.1029 N   0  0  0  0  0  0  0  0  0  0  0  0
    5.0025   -1.4924   -0.3745 O   0  0  0  0  0  0  0  0  0  0  0  0
    4.6397   -3.2148    2.4253 O   0  0  0  0  0  0  0  0  0  0  0  0
    3.9436   -3.4144   -0.4362 O   0  0  0  0  0  0  0  0  0  0  0  0
    4.0951   -1.6712    4.0025 O   0  0  0  0  0  0  0  0  0  0  0  0
   -0.6146    0.2495    2.8149 S   0  0  0  0  0  0  0  0  0  0  0  0
    1.9051   -1.0121   -1.1992 H   0  0  0  0  0  0  0  0  0  0  0  0
    0.0085   -0.0042   -0.0180 H   0  0  0  0  0  0  0  0  0  0  0  0
    1.7722   -1.0989    3.7635 H   0  0  0  0  0  0  0  0  0  0  0  0
    4.8089   -2.0766    4.5396 H   0  0  0  0  0  0  0  0  0  0  0  0
   -1.2926    0.6587    1.7320 H   0  0  0  0  0  0  0  0  0  0  0  0
  1  2  2  0  0  0  0
  1  5  1  0  0  0  0
  1 14  1  0  0  0  0
  2  6  1  0  0  0  0
  2 15  1  0  0  0  0
  3  4  1  0  0  0  0
  3  6  2  0  0  0  0
  3 16  1  0  0  0  0
  4  5  2  0  0  0  0
  4  7  1  0  0  0  0
  5  8  1  0  0  0  0
  6 13  1  0  0  0  0
  7 10  2  0  0  0  0
  7 12  1  0  0  0  0
  8  9  1  0  0  0  0
  8 11  2  0  0  0  0
 12 17  1  0  0  0  0
 13 18  1  0  0  0  0
M  END
$$$$
DrugBank_2467
 OpenBabel01151909533D

 42 43  0  0  1  0  0  0  0  0999 V2000
    4.3653    1.0224    3.5813 C   0  0  0  0  0  0  0  0  0  0  0  0
    6.2076   -2.0605   -6.1750 C   0  0  0  0  0  0  0  0  0  0  0  0
    3.0616    0.7640    4.0045 C   0  0  0  0  0  0  0  0  0  0  0  0
    4.6145    1.3452    2.2474 C   0  0  0  0  0  0  0  0  0  0  0  0
    4.8436   -2.1763   -6.4423 C   0  0  0  0  0  0  0  0  0  0  0  0
    6.6758   -2.1924   -4.8677 C   0  0  0  0  0  0  0  0  0  0  0  0
    2.0070    0.8285    3.0938 C   0  0  0  0  0  0  0  0  0  0  0  0
    3.5600    1.4097    1.3367 C   0  0  0  0  0  0  0  0  0  0  0  0
    3.9476   -2.4239   -5.4023 C   0  0  0  0  0  0  0  0  0  0  0  0
    5.7799   -2.4400   -3.8277 C   0  0  0  0  0  0  0  0  0  0  0  0
    2.2562    1.1513    1.7598 C   0  0  0  0  0  0  0  0  0  0  0  0
    4.4158   -2.5558   -4.0950 C   0  0  0  0  0  0  0  0  0  0  0  0
   -0.5553   -0.1251   -0.5137 C   0  0  0  0  0  0  0  0  0  0  0  0
    2.1135   -1.6542   -1.4046 C   0  0  0  0  0  0  0  0  0  0  0  0
    1.1159    1.2209    0.7739 C   0  0  0  0  0  0  0  0  0  0  0  0
    3.4525   -2.8219   -2.9757 C   0  0  0  0  0  0  0  0  0  0  0  0
   -1.6540   -0.6848    0.3594 C   0  0  0  0  0  0  0  0  0  0  0  0
    0.8435   -0.1196    0.0896 C   0  0  2  0  0  0  0  0  0  0  0  0
   -3.8728   -0.6070   -0.8149 N   0  0  0  0  0  0  0  0  0  0  0  0
   -2.9132   -0.6406   -0.3069 N   0  0  0  0  0  0  0  0  0  0  0  0
    1.7647   -0.3851   -0.9859 N   0  0  0  0  0  0  0  0  0  0  0  0
   -0.7845    0.3332   -1.6334 O   0  0  0  0  0  0  0  0  0  0  0  0
    1.6948   -2.7038   -0.9275 O   0  0  0  0  0  0  0  0  0  0  0  0
    3.0025   -1.5727   -2.4393 O   0  0  0  0  0  0  0  0  0  0  0  0
    5.1861    0.9735    4.2909 H   0  0  0  0  0  0  0  0  0  0  0  0
    6.9053   -1.8690   -6.9851 H   0  0  0  0  0  0  0  0  0  0  0  0
    2.8672    0.5137    5.0433 H   0  0  0  0  0  0  0  0  0  0  0  0
    5.6293    1.5475    1.9178 H   0  0  0  0  0  0  0  0  0  0  0  0
    4.4790   -2.0747   -7.4604 H   0  0  0  0  0  0  0  0  0  0  0  0
    7.7379   -2.1034   -4.6593 H   0  0  0  0  0  0  0  0  0  0  0  0
    0.9944    0.6254    3.4324 H   0  0  0  0  0  0  0  0  0  0  0  0
    3.7637    1.6619    0.2993 H   0  0  0  0  0  0  0  0  0  0  0  0
    2.8865   -2.5125   -5.6200 H   0  0  0  0  0  0  0  0  0  0  0  0
    6.1537   -2.5412   -2.8122 H   0  0  0  0  0  0  0  0  0  0  0  0
    1.3223    1.9974    0.0248 H   0  0  0  0  0  0  0  0  0  0  0  0
    0.2189    1.5641    1.3063 H   0  0  0  0  0  0  0  0  0  0  0  0
    2.5864   -3.3907   -3.3311 H   0  0  0  0  0  0  0  0  0  0  0  0
    3.9328   -3.4022   -2.1805 H   0  0  0  0  0  0  0  0  0  0  0  0
   -1.4220   -1.7249    0.6041 H   0  0  0  0  0  0  0  0  0  0  0  0
   -1.7205   -0.0956    1.2779 H   0  0  0  0  0  0  0  0  0  0  0  0
    0.9302   -0.9602    0.7868 H   0  0  0  0  0  0  0  0  0  0  0  0
    2.1828    0.4088   -1.4650 H   0  0  0  0  0  0  0  0  0  0  0  0
  1  3  2  0  0  0  0
  1  4  1  0  0  0  0
  1 25  1  0  0  0  0
  2  5  2  0  0  0  0
  2  6  1  0  0  0  0
  2 26  1  0  0  0  0
  3  7  1  0  0  0  0
  3 27  1  0  0  0  0
  4  8  2  0  0  0  0
  4 28  1  0  0  0  0
  5  9  1  0  0  0  0
  5 29  1  0  0  0  0
  6 10  2  0  0  0  0
  6 30  1  0  0  0  0
  7 11  2  0  0  0  0
  7 31  1  0  0  0  0
  8 11  1  0  0  0  0
  8 32  1  0  0  0  0
  9 12  2  0  0  0  0
  9 33  1  0  0  0  0
 10 12  1  0  0  0  0
 10 34  1  0  0  0  0
 11 15  1  0  0  0  0
 12 16  1  0  0  0  0
 13 17  1  0  0  0  0
 13 18  1  0  0  0  0
 13 22  2  0  0  0  0
 14 21  1  0  0  0  0
 14 23  2  0  0  0  0
 14 24  1  0  0  0  0
 15 18  1  0  0  0  0
 15 35  1  0  0  0  0
 15 36  1  0  0  0  0
 16 24  1  0  0  0  0
 16 37  1  0  0  0  0
 16 38  1  0  0  0  0
 17 20  1  0  0  0  0
 17 39  1  0  0  0  0
 17 40  1  0  0  0  0
 18 21  1  0  0  0  0
 18 41  1  1  0  0  0
 19 20  3  0  0  0  0
 21 42  1  0  0  0  0
M  END
$$$$
DrugBank_2474
 OpenBabel01151909533D

 54 53  0  0  0  0  0  0  0  0999 V2000
   -8.3660    4.5506   -3.9534 C   0  0  0  0  0  0  0  0  0  0  0  0
   -6.8924    4.8751   -3.7588 C   0  0  0  0  0  0  0  0  0  0  0  0
   -6.0934    4.6247   -5.0385 C   0  0  0  0  0  0  0  0  0  0  0  0
   -4.6142    5.0068   -4.9207 C   0  0  0  0  0  0  0  0  0  0  0  0
   -3.8121    4.7274   -6.1945 C   0  0  0  0  0  0  0  0  0  0  0  0
   -2.3190    5.0425   -6.0535 C   0  0  0  0  0  0  0  0  0  0  0  0
   -1.5169    4.7848   -7.3320 C   0  0  0  0  0  0  0  0  0  0  0  0
   -0.0326    5.0961   -7.1231 C   0  0  0  0  0  0  0  0  0  0  0  0
    0.8243    4.8482   -8.3686 C   0  0  0  0  0  0  0  0  0  0  0  0
    2.3109    5.1953   -8.2344 C   0  0  0  0  0  0  0  0  0  0  0  0
    3.1297    4.8437   -9.4789 C   0  0  0  0  0  0  0  0  0  0  0  0
    4.6258    5.1378   -9.3213 C   0  0  0  0  0  0  0  0  0  0  0  0
    5.4398    4.8099  -10.5759 C   0  0  0  0  0  0  0  0  0  0  0  0
    6.9438    5.0473  -10.3999 C   0  0  0  0  0  0  0  0  0  0  0  0
    7.7668    4.6464  -11.6280 C   0  0  0  0  0  0  0  0  0  0  0  0
    9.2589    4.8918  -11.4453 C   0  0  0  0  0  0  0  0  0  0  0  0
    9.7731    5.1484  -14.0054 O   0  0  0  0  0  0  0  0  0  0  0  0
   10.2936    2.9465  -12.8659 O   0  0  0  0  0  0  0  0  0  0  0  0
   11.6472    4.9923  -12.3459 O   0  0  0  0  0  0  0  0  0  0  0  0
   10.2127    4.3961  -12.8439 S   0  0  0  0  0  0  0  0  0  0  0  0
   -8.7945    5.1462   -4.7658 H   0  0  0  0  0  0  0  0  0  0  0  0
   -8.9364    4.7518   -3.0409 H   0  0  0  0  0  0  0  0  0  0  0  0
   -8.4909    3.4927   -4.2050 H   0  0  0  0  0  0  0  0  0  0  0  0
   -6.5052    4.2595   -2.9401 H   0  0  0  0  0  0  0  0  0  0  0  0
   -6.7925    5.9236   -3.4555 H   0  0  0  0  0  0  0  0  0  0  0  0
   -6.1794    3.5708   -5.3299 H   0  0  0  0  0  0  0  0  0  0  0  0
   -6.5328    5.2136   -5.8535 H   0  0  0  0  0  0  0  0  0  0  0  0
   -4.5676    6.0759   -4.6856 H   0  0  0  0  0  0  0  0  0  0  0  0
   -4.1634    4.4756   -4.0738 H   0  0  0  0  0  0  0  0  0  0  0  0
   -4.2314    5.2997   -7.0307 H   0  0  0  0  0  0  0  0  0  0  0  0
   -3.9019    3.6679   -6.4587 H   0  0  0  0  0  0  0  0  0  0  0  0
   -1.9143    4.4172   -5.2477 H   0  0  0  0  0  0  0  0  0  0  0  0
   -2.1912    6.0852   -5.7382 H   0  0  0  0  0  0  0  0  0  0  0  0
   -1.9005    5.4055   -8.1489 H   0  0  0  0  0  0  0  0  0  0  0  0
   -1.6424    3.7373   -7.6278 H   0  0  0  0  0  0  0  0  0  0  0  0
    0.0758    6.1515   -6.8425 H   0  0  0  0  0  0  0  0  0  0  0  0
    0.3548    4.5135   -6.2794 H   0  0  0  0  0  0  0  0  0  0  0  0
    0.7403    3.7916   -8.6520 H   0  0  0  0  0  0  0  0  0  0  0  0
    0.3995    5.4236   -9.2006 H   0  0  0  0  0  0  0  0  0  0  0  0
    2.4183    6.2588   -7.9962 H   0  0  0  0  0  0  0  0  0  0  0  0
    2.7113    4.6444   -7.3741 H   0  0  0  0  0  0  0  0  0  0  0  0
    2.7485    5.3894  -10.3496 H   0  0  0  0  0  0  0  0  0  0  0  0
    3.0115    3.7751   -9.6964 H   0  0  0  0  0  0  0  0  0  0  0  0
    5.0043    4.5429   -8.4810 H   0  0  0  0  0  0  0  0  0  0  0  0
    4.7574    6.1913   -9.0499 H   0  0  0  0  0  0  0  0  0  0  0  0
    5.0806    5.4025  -11.4250 H   0  0  0  0  0  0  0  0  0  0  0  0
    5.2887    3.7553  -10.8377 H   0  0  0  0  0  0  0  0  0  0  0  0
    7.1148    6.1021  -10.1569 H   0  0  0  0  0  0  0  0  0  0  0  0
    7.2822    4.4640   -9.5346 H   0  0  0  0  0  0  0  0  0  0  0  0
    7.6152    3.5779  -11.8236 H   0  0  0  0  0  0  0  0  0  0  0  0
    7.4137    5.1899  -12.5114 H   0  0  0  0  0  0  0  0  0  0  0  0
    9.4770    5.9469  -11.2564 H   0  0  0  0  0  0  0  0  0  0  0  0
    9.6332    4.3055  -10.6002 H   0  0  0  0  0  0  0  0  0  0  0  0
   11.7013    5.9756  -12.2947 H   0  0  0  0  0  0  0  0  0  0  0  0
  1  2  1  0  0  0  0
  1 21  1  0  0  0  0
  1 22  1  0  0  0  0
  1 23  1  0  0  0  0
  2  3  1  0  0  0  0
  2 24  1  0  0  0  0
  2 25  1  0  0  0  0
  3  4  1  0  0  0  0
  3 26  1  0  0  0  0
  3 27  1  0  0  0  0
  4  5  1  0  0  0  0
  4 28  1  0  0  0  0
  4 29  1  0  0  0  0
  5  6  1  0  0  0  0
  5 30  1  0  0  0  0
  5 31  1  0  0  0  0
  6  7  1  0  0  0  0
  6 32  1  0  0  0  0
  6 33  1  0  0  0  0
  7  8  1  0  0  0  0
  7 34  1  0  0  0  0
  7 35  1  0  0  0  0
  8  9  1  0  0  0  0
  8 36  1  0  0  0  0
  8 37  1  0  0  0  0
  9 10  1  0  0  0  0
  9 38  1  0  0  0  0
  9 39  1  0  0  0  0
 10 11  1  0  0  0  0
 10 40  1  0  0  0  0
 10 41  1  0  0  0  0
 11 12  1  0  0  0  0
 11 42  1  0  0  0  0
 11 43  1  0  0  0  0
 12 13  1  0  0  0  0
 12 44  1  0  0  0  0
 12 45  1  0  0  0  0
 13 14  1  0  0  0  0
 13 46  1  0  0  0  0
 13 47  1  0  0  0  0
 14 15  1  0  0  0  0
 14 48  1  0  0  0  0
 14 49  1  0  0  0  0
 15 16  1  0  0  0  0
 15 50  1  0  0  0  0
 15 51  1  0  0  0  0
 16 20  1  0  0  0  0
 16 52  1  0  0  0  0
 16 53  1  0  0  0  0
 17 20  2  0  0  0  0
 18 20  2  0  0  0  0
 19 20  1  0  0  0  0
 19 54  1  0  0  0  0
M  END
$$$$
DrugBank_5115
 OpenBabel01151909533D

 24 25  0  0  0  0  0  0  0  0999 V2000
   -0.4966   -2.0341    0.4940 C   0  0  0  0  0  0  0  0  0  0  0  0
    3.8693   -4.3100   -0.6758 C   0  0  0  0  0  0  0  0  0  0  0  0
   -0.0479   -3.3542    0.5448 C   0  0  0  0  0  0  0  0  0  0  0  0
    3.4207   -2.9899   -0.7267 C   0  0  0  0  0  0  0  0  0  0  0  0
    0.3500   -1.0275    0.0392 C   0  0  0  0  0  0  0  0  0  0  0  0
    3.0228   -5.3167   -0.2210 C   0  0  0  0  0  0  0  0  0  0  0  0
    2.1168   -2.6602   -0.3222 C   0  0  0  0  0  0  0  0  0  0  0  0
    1.2560   -3.6839    0.1403 C   0  0  0  0  0  0  0  0  0  0  0  0
    1.6484   -1.3369   -0.3665 C   0  0  0  0  0  0  0  0  0  0  0  0
    1.7243   -5.0072    0.1848 C   0  0  0  0  0  0  0  0  0  0  0  0
    2.4698   -0.2745   -0.8175 N   0  0  0  0  0  0  0  0  0  0  0  0
    1.5692   -7.5384    0.7387 O   0  0  0  0  0  0  0  0  0  0  0  0
    0.0737   -5.8998    1.9523 O   0  0  0  0  0  0  0  0  0  0  0  0
   -0.3936   -6.5464   -0.4202 O   0  0  0  0  0  0  0  0  0  0  0  0
    0.7357   -6.3492    0.7414 S   0  0  0  0  0  0  0  0  0  0  0  0
   -1.5074   -1.7923    0.8096 H   0  0  0  0  0  0  0  0  0  0  0  0
    4.8805   -4.5514   -0.9902 H   0  0  0  0  0  0  0  0  0  0  0  0
   -0.7455   -4.1043    0.9072 H   0  0  0  0  0  0  0  0  0  0  0  0
    4.1133   -2.2327   -1.0872 H   0  0  0  0  0  0  0  0  0  0  0  0
   -0.0128   -0.0030    0.0060 H   0  0  0  0  0  0  0  0  0  0  0  0
    3.3878   -6.3399   -0.1869 H   0  0  0  0  0  0  0  0  0  0  0  0
    2.0829    0.6425   -0.8749 H   0  0  0  0  0  0  0  0  0  0  0  0
    3.3842   -0.4831   -1.1556 H   0  0  0  0  0  0  0  0  0  0  0  0
   -0.0532   -6.8525   -1.2936 H   0  0  0  0  0  0  0  0  0  0  0  0
  1  3  2  0  0  0  0
  1  5  1  0  0  0  0
  1 16  1  0  0  0  0
  2  4  2  0  0  0  0
  2  6  1  0  0  0  0
  2 17  1  0  0  0  0
  3  8  1  0  0  0  0
  3 18  1  0  0  0  0
  4  7  1  0  0  0  0
  4 19  1  0  0  0  0
  5  9  2  0  0  0  0
  5 20  1  0  0  0  0
  6 10  2  0  0  0  0
  6 21  1  0  0  0  0
  7  8  2  0  0  0  0
  7  9  1  0  0  0  0
  8 10  1  0  0  0  0
  9 11  1  0  0  0  0
 10 15  1  0  0  0  0
 11 22  1  0  0  0  0
 11 23  1  0  0  0  0
 12 15  2  0  0  0  0
 13 15  2  0  0  0  0
 14 15  1  0  0  0  0
 14 24  1  0  0  0  0
M  END
$$$$
DrugBank_2506
 OpenBabel01151909533D

 19 18  0  0  0  0  0  0  0  0999 V2000
   -2.5721    0.9589    1.7852 C   0  0  0  0  0  0  0  0  0  0  0  0
    3.3188    1.4140   -0.6331 C   0  0  0  0  0  0  0  0  0  0  0  0
   -1.9813   -0.0969    0.8753 C   0  0  0  0  0  0  0  0  0  0  0  0
    2.1690    0.5707   -0.1245 C   0  0  0  0  0  0  0  0  0  0  0  0
   -0.8923   -0.7434   -2.1269 O   0  0  0  0  0  0  0  0  0  0  0  0
   -0.8854    0.4609    0.1719 O   0  0  0  0  0  0  0  0  0  0  0  0
    1.2383    0.3770   -1.1756 O   0  0  0  0  0  0  0  0  0  0  0  0
   -0.0942   -0.5050   -0.8713 P   0  0  0  0  0  0  0  0  0  0  0  0
   -1.8321    1.3067    2.5113 H   0  0  0  0  0  0  0  0  0  0  0  0
   -2.9262    1.8161    1.2030 H   0  0  0  0  0  0  0  0  0  0  0  0
   -3.4378    0.5619    2.3256 H   0  0  0  0  0  0  0  0  0  0  0  0
    3.8287    0.9182   -1.4638 H   0  0  0  0  0  0  0  0  0  0  0  0
    2.9603    2.3917   -0.9713 H   0  0  0  0  0  0  0  0  0  0  0  0
    4.0439    1.5999    0.1661 H   0  0  0  0  0  0  0  0  0  0  0  0
   -2.7265   -0.4404    0.1515 H   0  0  0  0  0  0  0  0  0  0  0  0
   -1.6274   -0.9521    1.4586 H   0  0  0  0  0  0  0  0  0  0  0  0
    1.6633    1.0722    0.7061 H   0  0  0  0  0  0  0  0  0  0  0  0
    2.5288   -0.4061    0.2122 H   0  0  0  0  0  0  0  0  0  0  0  0
    0.3777   -1.5615   -0.0628 H   0  0  0  0  0  0  0  0  0  0  0  0
  1  3  1  0  0  0  0
  1  9  1  0  0  0  0
  1 10  1  0  0  0  0
  1 11  1  0  0  0  0
  2  4  1  0  0  0  0
  2 12  1  0  0  0  0
  2 13  1  0  0  0  0
  2 14  1  0  0  0  0
  3  6  1  0  0  0  0
  3 15  1  0  0  0  0
  3 16  1  0  0  0  0
  4  7  1  0  0  0  0
  4 17  1  0  0  0  0
  4 18  1  0  0  0  0
  5  8  2  0  0  0  0
  6  8  1  0  0  0  0
  7  8  1  0  0  0  0
  8 19  1  0  0  0  0
M  END
$$$$
DrugBank_2519
 OpenBabel01151909533D

  8  7  0  0  0  0  0  0  0  0999 V2000
    0.8535   -0.5253    0.4359 C   0  0  0  0  0  0  0  0  0  0  0  0
    2.9516    1.1129    0.4814 O   0  0  0  0  0  0  0  0  0  0  0  0
    1.9976    0.3180   -1.8149 O   0  0  0  0  0  0  0  0  0  0  0  0
    2.3719   -0.0111   -0.3727 P   0  0  2  0  0  0  0  0  0  0  0  0
    0.1369    0.2998    0.4482 H   0  0  0  0  0  0  0  0  0  0  0  0
    0.4111   -1.3695   -0.0989 H   0  0  0  0  0  0  0  0  0  0  0  0
    1.0608   -0.8286    1.4651 H   0  0  0  0  0  0  0  0  0  0  0  0
    3.2109   -1.1550   -0.3255 H   0  0  0  0  0  0  0  0  0  0  0  0
  1  4  1  0  0  0  0
  1  5  1  0  0  0  0
  1  6  1  0  0  0  0
  1  7  1  0  0  0  0
  2  4  1  0  0  0  0
  3  4  2  0  0  0  0
  4  8  1  6  0  0  0
M  END
$$$$
DrugBank_2530
 OpenBabel01151909533D

 28 28  0  0  1  0  0  0  0  0999 V2000
   -1.7081   -0.0228    1.3207 C   0  0  2  0  0  0  0  0  0  0  0  0
   -0.3325    0.5067    0.9149 C   0  0  2  0  0  0  0  0  0  0  0  0
   -1.6124   -1.4446    1.8743 C   0  0  1  0  0  0  0  0  0  0  0  0
    0.6841    0.2942    2.0390 C   0  0  2  0  0  0  0  0  0  0  0  0
   -0.5064   -1.5598    2.9232 C   0  0  2  0  0  0  0  0  0  0  0  0
    2.0951    0.7014    1.6260 C   0  0  0  0  0  0  0  0  0  0  0  0
   -0.4893    1.4733   -1.8326 O   0  0  0  0  0  0  0  0  0  0  0  0
   -2.4905    2.5222   -0.7272 O   0  0  0  0  0  0  0  0  0  0  0  0
    0.7321   -1.0878    2.3977 O   0  0  0  0  0  0  0  0  0  0  0  0
   -2.5518   -0.0238    0.1676 O   0  0  0  0  0  0  0  0  0  0  0  0
   -2.8667   -1.7814    2.4653 O   0  0  0  0  0  0  0  0  0  0  0  0
   -0.3868   -2.9355    3.2830 O   0  0  0  0  0  0  0  0  0  0  0  0
    2.9657    0.4841    2.7213 O   0  0  0  0  0  0  0  0  0  0  0  0
   -0.3955    3.8358   -1.0564 O   0  0  0  0  0  0  0  0  0  0  0  0
   -0.4633    1.8949    0.6192 O   0  0  0  0  0  0  0  0  0  0  0  0
   -1.0523    2.3596   -0.8310 S   0  0  0  0  0  0  0  0  0  0  0  0
   -2.1795    0.6498    2.0483 H   0  0  0  0  0  0  0  0  0  0  0  0
   -0.0113   -0.0024   -0.0030 H   0  0  0  0  0  0  0  0  0  0  0  0
   -1.4443   -2.1540    1.0542 H   0  0  0  0  0  0  0  0  0  0  0  0
    0.4116    0.8883    2.9213 H   0  0  0  0  0  0  0  0  0  0  0  0
   -0.7689   -1.0046    3.8325 H   0  0  0  0  0  0  0  0  0  0  0  0
    2.1134    1.7571    1.3552 H   0  0  0  0  0  0  0  0  0  0  0  0
    2.4238    0.0987    0.7793 H   0  0  0  0  0  0  0  0  0  0  0  0
   -3.4111   -0.3633    0.4588 H   0  0  0  0  0  0  0  0  0  0  0  0
   -2.7759   -2.6843    2.8061 H   0  0  0  0  0  0  0  0  0  0  0  0
    0.3177   -2.9852    3.9468 H   0  0  0  0  0  0  0  0  0  0  0  0
    3.8563    0.7499    2.4352 H   0  0  0  0  0  0  0  0  0  0  0  0
   -0.5634    4.4921   -0.3406 H   0  0  0  0  0  0  0  0  0  0  0  0
  1  2  1  6  0  0  0
  1 10  1  0  0  0  0
  1 17  1  0  0  0  0
  2  4  1  1  0  0  0
  2 15  1  0  0  0  0
  2 18  1  0  0  0  0
  3  1  1  6  0  0  0
  3 11  1  0  0  0  0
  3 19  1  0  0  0  0
  4  6  1  0  0  0  0
  4  9  1  0  0  0  0
  4 20  1  1  0  0  0
  5  3  1  6  0  0  0
  5  9  1  0  0  0  0
  5 12  1  0  0  0  0
  5 21  1  0  0  0  0
  6 13  1  0  0  0  0
  6 22  1  0  0  0  0
  6 23  1  0  0  0  0
  7 16  2  0  0  0  0
  8 16  2  0  0  0  0
 10 24  1  0  0  0  0
 11 25  1  0  0  0  0
 12 26  1  0  0  0  0
 13 27  1  0  0  0  0
 14 16  1  0  0  0  0
 14 28  1  0  0  0  0
 15 16  1  0  0  0  0
M  END
$$$$
DrugBank_5154
 OpenBabel01151909533D

 61 65  0  0  1  0  0  0  0  0999 V2000
   -0.2232    0.5102   -3.7981 C   0  0  0  0  0  0  0  0  0  0  0  0
    1.0509    0.4590   -3.2475 C   0  0  0  0  0  0  0  0  0  0  0  0
    1.2930    5.0579   -0.1082 C   0  0  0  0  0  0  0  0  0  0  0  0
    2.2449    6.0661   -0.2393 C   0  0  0  0  0  0  0  0  0  0  0  0
    3.8986    4.4038   -0.7841 C   0  0  0  0  0  0  0  0  0  0  0  0
   -1.1748    1.2638   -3.1423 C   0  0  0  0  0  0  0  0  0  0  0  0
    1.3485    1.1651   -2.0748 C   0  0  0  0  0  0  0  0  0  0  0  0
    2.9568    3.3615   -0.6438 C   0  0  0  0  0  0  0  0  0  0  0  0
    1.6261    3.7021   -0.3122 C   0  0  0  0  0  0  0  0  0  0  0  0
    3.5478    5.7391   -0.5831 C   0  0  0  0  0  0  0  0  0  0  0  0
    0.3147    1.8915   -1.4753 C   0  0  0  0  0  0  0  0  0  0  0  0
    2.6932    1.0329   -1.5027 C   0  0  0  0  0  0  0  0  0  0  0  0
    3.4188    1.9592   -0.8436 C   0  0  0  0  0  0  0  0  0  0  0  0
   -0.5069    0.7605    1.0906 C   0  0  0  0  0  0  0  0  0  0  0  0
    0.6220    2.6368    2.3247 C   0  0  0  0  0  0  0  0  0  0  0  0
   -0.4341   -0.0894    2.3556 C   0  0  0  0  0  0  0  0  0  0  0  0
    0.6776    1.7579    3.5706 C   0  0  0  0  0  0  0  0  0  0  0  0
    7.0154    1.8246   -0.7327 C   0  0  0  0  0  0  0  0  0  0  0  0
    6.1580    2.1751    1.4834 C   0  0  0  0  0  0  0  0  0  0  0  0
    5.7000    1.1881   -1.1815 C   0  0  0  0  0  0  0  0  0  0  0  0
    4.8161    1.5493    1.1039 C   0  0  0  0  0  0  0  0  0  0  0  0
    0.5096    2.6771   -0.1932 C   0  0  1  0  0  0  0  0  0  0  0  0
    0.6288    1.7912    1.0445 C   0  0  0  0  0  0  0  0  0  0  0  0
    0.6182   -1.1079    5.0592 C   0  0  0  0  0  0  0  0  0  0  0  0
   -0.9385    1.9473   -2.0023 N   0  0  0  0  0  0  0  0  0  0  0  0
    7.2600    1.6141    0.6969 N   0  0  0  0  0  0  0  0  0  0  0  0
    4.6009    1.6592   -0.3390 N   0  0  0  0  0  0  0  0  0  0  0  0
   -0.4628    0.7958    3.5563 N   0  0  0  0  0  0  0  0  0  0  0  0
   -1.9708   -0.7888    4.9097 O   0  0  0  0  0  0  0  0  0  0  0  0
   -0.5935    0.9495    6.1208 O   0  0  0  0  0  0  0  0  0  0  0  0
   -0.7668    0.0003    5.0440 S   0  0  0  0  0  0  0  0  0  0  0  0
    4.7291    6.9776   -0.7620 Cl  0  0  0  0  0  0  0  0  0  0  0  0
   -0.4613   -0.0272   -4.7086 H   0  0  0  0  0  0  0  0  0  0  0  0
    1.8129   -0.1373   -3.7450 H   0  0  0  0  0  0  0  0  0  0  0  0
    0.2748    5.3407    0.1508 H   0  0  0  0  0  0  0  0  0  0  0  0
    1.9505    7.0997   -0.0772 H   0  0  0  0  0  0  0  0  0  0  0  0
    4.9263    4.1732   -1.0638 H   0  0  0  0  0  0  0  0  0  0  0  0
   -2.1870    1.3394   -3.5250 H   0  0  0  0  0  0  0  0  0  0  0  0
    3.1274    0.0407   -1.6298 H   0  0  0  0  0  0  0  0  0  0  0  0
   -0.4589    0.1078    0.2102 H   0  0  0  0  0  0  0  0  0  0  0  0
   -1.4770    1.2749    1.0546 H   0  0  0  0  0  0  0  0  0  0  0  0
   -0.2857    3.2547    2.3562 H   0  0  0  0  0  0  0  0  0  0  0  0
    1.4768    3.3245    2.3259 H   0  0  0  0  0  0  0  0  0  0  0  0
   -1.2965   -0.7645    2.3806 H   0  0  0  0  0  0  0  0  0  0  0  0
    0.4795   -0.6949    2.3639 H   0  0  0  0  0  0  0  0  0  0  0  0
    1.6246    1.2080    3.6155 H   0  0  0  0  0  0  0  0  0  0  0  0
    0.6056    2.3952    4.4586 H   0  0  0  0  0  0  0  0  0  0  0  0
    7.8446    1.3919   -1.3031 H   0  0  0  0  0  0  0  0  0  0  0  0
    7.0113    2.9002   -0.9490 H   0  0  0  0  0  0  0  0  0  0  0  0
    6.1244    3.2625    1.3415 H   0  0  0  0  0  0  0  0  0  0  0  0
    6.3550    2.0026    2.5472 H   0  0  0  0  0  0  0  0  0  0  0  0
    5.5283    1.4341   -2.2369 H   0  0  0  0  0  0  0  0  0  0  0  0
    5.7604    0.0945   -1.1103 H   0  0  0  0  0  0  0  0  0  0  0  0
    4.7945    0.4893    1.3878 H   0  0  0  0  0  0  0  0  0  0  0  0
    4.0189    2.0506    1.6667 H   0  0  0  0  0  0  0  0  0  0  0  0
   -0.4261    3.2370   -0.0463 H   0  0  0  0  0  0  0  0  0  0  0  0
    1.5849    1.2553    0.9843 H   0  0  0  0  0  0  0  0  0  0  0  0
    0.5710   -1.7056    5.9709 H   0  0  0  0  0  0  0  0  0  0  0  0
    0.5563   -1.7485    4.1783 H   0  0  0  0  0  0  0  0  0  0  0  0
    1.5338   -0.5149    5.0376 H   0  0  0  0  0  0  0  0  0  0  0  0
    8.1249    2.0891    0.9565 H   0  0  0  0  0  0  0  0  0  0  0  0
  1  2  2  0  0  0  0
  1  6  1  0  0  0  0
  1 33  1  0  0  0  0
  2  7  1  0  0  0  0
  2 34  1  0  0  0  0
  3  4  2  0  0  0  0
  3  9  1  0  0  0  0
  3 35  1  0  0  0  0
  4 10  1  0  0  0  0
  4 36  1  0  0  0  0
  5  8  1  0  0  0  0
  5 10  2  0  0  0  0
  5 37  1  0  0  0  0
  6 25  2  0  0  0  0
  6 38  1  0  0  0  0
  7 11  2  0  0  0  0
  7 12  1  0  0  0  0
  8  9  2  0  0  0  0
  8 13  1  0  0  0  0
  9 22  1  0  0  0  0
 10 32  1  0  0  0  0
 11 22  1  0  0  0  0
 11 25  1  0  0  0  0
 12 13  2  0  0  0  0
 12 39  1  0  0  0  0
 13 27  1  0  0  0  0
 14 16  1  0  0  0  0
 14 23  1  0  0  0  0
 14 40  1  0  0  0  0
 14 41  1  0  0  0  0
 15 17  1  0  0  0  0
 15 23  1  0  0  0  0
 15 42  1  0  0  0  0
 15 43  1  0  0  0  0
 16 28  1  0  0  0  0
 16 44  1  0  0  0  0
 16 45  1  0  0  0  0
 17 28  1  0  0  0  0
 17 46  1  0  0  0  0
 17 47  1  0  0  0  0
 18 20  1  0  0  0  0
 18 26  1  0  0  0  0
 18 48  1  0  0  0  0
 18 49  1  0  0  0  0
 19 21  1  0  0  0  0
 19 26  1  0  0  0  0
 19 50  1  0  0  0  0
 19 51  1  0  0  0  0
 20 27  1  0  0  0  0
 20 52  1  0  0  0  0
 20 53  1  0  0  0  0
 21 27  1  0  0  0  0
 21 54  1  0  0  0  0
 21 55  1  0  0  0  0
 22 23  1  0  0  0  0
 22 56  1  1  0  0  0
 23 57  1  0  0  0  0
 24 31  1  0  0  0  0
 24 58  1  0  0  0  0
 24 59  1  0  0  0  0
 24 60  1  0  0  0  0
 26 61  1  0  0  0  0
 28 31  1  0  0  0  0
 29 31  2  0  0  0  0
 30 31  2  0  0  0  0
M  END
$$$$
DrugBank_2538
 OpenBabel01151909533D

  9  8  0  0  0  0  0  0  0  0999 V2000
   -0.0405   -1.0643    0.2466 C   0  0  0  0  0  0  0  0  0  0  0  0
    0.8524   -1.2590    2.8007 O   0  0  0  0  0  0  0  0  0  0  0  0
   -1.0317   -2.7907    1.9580 O   0  0  0  0  0  0  0  0  0  0  0  0
   -0.4209   -1.2828    1.9935 P   0  0  2  0  0  0  0  0  0  0  0  0
    0.8273   -1.6696   -0.0270 H   0  0  0  0  0  0  0  0  0  0  0  0
   -0.8928   -1.3724   -0.3642 H   0  0  0  0  0  0  0  0  0  0  0  0
    0.1814   -0.0145    0.0395 H   0  0  0  0  0  0  0  0  0  0  0  0
   -1.2735   -3.2195    2.8065 H   0  0  0  0  0  0  0  0  0  0  0  0
   -1.5367   -0.5205    2.3988 H   0  0  0  0  0  0  0  0  0  0  0  0
  1  4  1  0  0  0  0
  1  5  1  0  0  0  0
  1  6  1  0  0  0  0
  1  7  1  0  0  0  0
  2  4  2  0  0  0  0
  3  4  1  0  0  0  0
  3  8  1  0  0  0  0
  4  9  1  1  0  0  0
M  END
$$$$
DrugBank_5158
 OpenBabel01151909533D

 59 63  0  0  0  0  0  0  0  0999 V2000
   -6.2502    5.7442    7.5023 C   0  0  0  0  0  0  0  0  0  0  0  0
   -5.9328    4.2225    5.6528 C   0  0  0  0  0  0  0  0  0  0  0  0
    1.1511    6.5672    1.9029 C   0  0  0  0  0  0  0  0  0  0  0  0
   -7.6292    5.7077    7.2956 C   0  0  0  0  0  0  0  0  0  0  0  0
   -7.3118    4.1859    5.4461 C   0  0  0  0  0  0  0  0  0  0  0  0
    1.5494    5.2535    1.6347 C   0  0  0  0  0  0  0  0  0  0  0  0
   -0.0491    4.3678    3.2418 C   0  0  0  0  0  0  0  0  0  0  0  0
   -0.4602    5.6817    3.5220 C   0  0  0  0  0  0  0  0  0  0  0  0
   -5.4020    5.0016    6.6808 C   0  0  0  0  0  0  0  0  0  0  0  0
    0.1426    6.7413    2.8533 C   0  0  0  0  0  0  0  0  0  0  0  0
   -8.1600    4.9286    6.2676 C   0  0  0  0  0  0  0  0  0  0  0  0
    0.9609    4.1712    2.2916 C   0  0  0  0  0  0  0  0  0  0  0  0
   -1.4039    6.2964    4.3728 C   0  0  0  0  0  0  0  0  0  0  0  0
   -3.2129    6.1396    6.1186 C   0  0  0  0  0  0  0  0  0  0  0  0
  -12.4110    4.7415    5.7626 C   0  0  0  0  0  0  0  0  0  0  0  0
  -11.6636    6.0605    5.6097 C   0  0  0  0  0  0  0  0  0  0  0  0
  -11.5101    3.5779    5.3665 C   0  0  0  0  0  0  0  0  0  0  0  0
    2.5593    1.0627    0.8502 C   0  0  0  0  0  0  0  0  0  0  0  0
  -10.3574    6.0631    6.4025 C   0  0  0  0  0  0  0  0  0  0  0  0
  -10.2082    3.5829    6.1646 C   0  0  0  0  0  0  0  0  0  0  0  0
    2.4752    2.5815    0.9805 C   0  0  0  0  0  0  0  0  0  0  0  0
    1.1252    0.5704    0.7486 C   0  0  0  0  0  0  0  0  0  0  0  0
   -3.9275    5.0404    6.9007 C   0  0  0  0  0  0  0  0  0  0  0  0
   -1.4105    7.6269    4.2640 N   0  0  0  0  0  0  0  0  0  0  0  0
   -0.4663    7.8669    3.3389 N   0  0  0  0  0  0  0  0  0  0  0  0
   -9.5443    4.8902    6.0610 N   0  0  0  0  0  0  0  0  0  0  0  0
    1.4012    2.8213    1.9873 N   0  0  0  0  0  0  0  0  0  0  0  0
   -2.2629    5.5994    5.2554 N   0  0  0  0  0  0  0  0  0  0  0  0
   -3.4842    7.3257    6.2762 O   0  0  0  0  0  0  0  0  0  0  0  0
    0.1633    0.8692    3.1906 O   0  0  0  0  0  0  0  0  0  0  0  0
   -0.9948    2.0308    1.2562 O   0  0  0  0  0  0  0  0  0  0  0  0
    0.2053    1.5585    1.9172 S   0  0  0  0  0  0  0  0  0  0  0  0
   -5.8453    6.3547    8.3048 H   0  0  0  0  0  0  0  0  0  0  0  0
   -5.2796    3.6421    5.0068 H   0  0  0  0  0  0  0  0  0  0  0  0
    1.6066    7.4092    1.3936 H   0  0  0  0  0  0  0  0  0  0  0  0
   -8.2811    6.2913    7.9405 H   0  0  0  0  0  0  0  0  0  0  0  0
   -7.7144    3.5759    4.6417 H   0  0  0  0  0  0  0  0  0  0  0  0
    2.3332    5.0846    0.8994 H   0  0  0  0  0  0  0  0  0  0  0  0
   -0.5050    3.5234    3.7513 H   0  0  0  0  0  0  0  0  0  0  0  0
  -12.7409    4.6195    6.8014 H   0  0  0  0  0  0  0  0  0  0  0  0
  -13.3092    4.7474    5.1354 H   0  0  0  0  0  0  0  0  0  0  0  0
  -11.4441    6.2289    4.5478 H   0  0  0  0  0  0  0  0  0  0  0  0
  -12.2988    6.8895    5.9412 H   0  0  0  0  0  0  0  0  0  0  0  0
  -12.0361    2.6294    5.5226 H   0  0  0  0  0  0  0  0  0  0  0  0
  -11.2814    3.6466    4.2954 H   0  0  0  0  0  0  0  0  0  0  0  0
    3.1582    0.7594   -0.0134 H   0  0  0  0  0  0  0  0  0  0  0  0
    3.0281    0.6432    1.7491 H   0  0  0  0  0  0  0  0  0  0  0  0
   -9.8094    6.9858    6.1742 H   0  0  0  0  0  0  0  0  0  0  0  0
  -10.5756    6.0640    7.4783 H   0  0  0  0  0  0  0  0  0  0  0  0
  -10.4153    3.3534    7.2180 H   0  0  0  0  0  0  0  0  0  0  0  0
   -9.5537    2.7928    5.7757 H   0  0  0  0  0  0  0  0  0  0  0  0
    3.4252    2.9927    1.3340 H   0  0  0  0  0  0  0  0  0  0  0  0
    2.2154    3.0394    0.0194 H   0  0  0  0  0  0  0  0  0  0  0  0
    0.7158    0.7607   -0.2479 H   0  0  0  0  0  0  0  0  0  0  0  0
    1.0240   -0.4870    1.0008 H   0  0  0  0  0  0  0  0  0  0  0  0
   -3.7032    5.1831    7.9707 H   0  0  0  0  0  0  0  0  0  0  0  0
   -3.4745    4.0741    6.6238 H   0  0  0  0  0  0  0  0  0  0  0  0
   -0.2828    8.8285    3.0808 H   0  0  0  0  0  0  0  0  0  0  0  0
   -2.1764    4.5852    5.2598 H   0  0  0  0  0  0  0  0  0  0  0  0
  1  4  2  0  0  0  0
  1  9  1  0  0  0  0
  1 33  1  0  0  0  0
  2  5  1  0  0  0  0
  2  9  2  0  0  0  0
  2 34  1  0  0  0  0
  3  6  2  0  0  0  0
  3 10  1  0  0  0  0
  3 35  1  0  0  0  0
  4 11  1  0  0  0  0
  4 36  1  0  0  0  0
  5 11  2  0  0  0  0
  5 37  1  0  0  0  0
  6 12  1  0  0  0  0
  6 38  1  0  0  0  0
  7  8  1  0  0  0  0
  7 12  2  0  0  0  0
  7 39  1  0  0  0  0
  8 10  2  0  0  0  0
  8 13  1  0  0  0  0
  9 23  1  0  0  0  0
 10 25  1  0  0  0  0
 11 26  1  0  0  0  0
 12 27  1  0  0  0  0
 13 24  2  0  0  0  0
 13 28  1  0  0  0  0
 14 23  1  0  0  0  0
 14 28  1  0  0  0  0
 14 29  2  0  0  0  0
 15 16  1  0  0  0  0
 15 17  1  0  0  0  0
 15 40  1  0  0  0  0
 15 41  1  0  0  0  0
 16 19  1  0  0  0  0
 16 42  1  0  0  0  0
 16 43  1  0  0  0  0
 17 20  1  0  0  0  0
 17 44  1  0  0  0  0
 17 45  1  0  0  0  0
 18 21  1  0  0  0  0
 18 22  1  0  0  0  0
 18 46  1  0  0  0  0
 18 47  1  0  0  0  0
 19 26  1  0  0  0  0
 19 48  1  0  0  0  0
 19 49  1  0  0  0  0
 20 26  1  0  0  0  0
 20 50  1  0  0  0  0
 20 51  1  0  0  0  0
 21 27  1  0  0  0  0
 21 52  1  0  0  0  0
 21 53  1  0  0  0  0
 22 32  1  0  0  0  0
 22 54  1  0  0  0  0
 22 55  1  0  0  0  0
 23 56  1  0  0  0  0
 23 57  1  0  0  0  0
 24 25  1  0  0  0  0
 25 58  1  0  0  0  0
 27 32  1  0  0  0  0
 28 59  1  0  0  0  0
 30 32  2  0  0  0  0
 31 32  2  0  0  0  0
M  END
$$$$
DrugBank_2542
 OpenBabel01151909533D

 39 40  0  0  0  0  0  0  0  0999 V2000
   -3.6680   -2.0010   -3.9026 C   0  0  0  0  0  0  0  0  0  0  0  0
   -2.7927   -1.3870   -3.0214 C   0  0  0  0  0  0  0  0  0  0  0  0
   -1.4904   -1.8698   -2.9554 C   0  0  0  0  0  0  0  0  0  0  0  0
   -1.1087   -2.9366   -3.7612 C   0  0  0  0  0  0  0  0  0  0  0  0
   -2.0595   -3.4814   -4.6092 C   0  0  0  0  0  0  0  0  0  0  0  0
    0.0640   -0.3962    0.8700 C   0  0  0  0  0  0  0  0  0  0  0  0
    1.8414   -2.2294    0.6397 C   0  0  0  0  0  0  0  0  0  0  0  0
    2.1293   -1.2018   -0.4147 C   0  0  0  0  0  0  0  0  0  0  0  0
    0.7111   -1.4265    0.0464 C   0  0  0  0  0  0  0  0  0  0  0  0
   -1.7025   -4.6290   -5.4960 C   0  0  0  0  0  0  0  0  0  0  0  0
   -0.4975   -1.2438   -2.0192 C   0  0  0  0  0  0  0  0  0  0  0  0
   -3.2562   -0.2474   -2.1819 C   0  0  0  0  0  0  0  0  0  0  0  0
   -3.3338   -3.0394   -4.7010 N   0  0  0  0  0  0  0  0  0  0  0  0
   -0.2583   -2.0700   -0.8486 N   0  0  0  0  0  0  0  0  0  0  0  0
    0.0164    0.7937    0.5960 O   0  0  0  0  0  0  0  0  0  0  0  0
   -4.1244   -0.1618    1.6430 O   0  0  0  0  0  0  0  0  0  0  0  0
    0.1572   -3.4290   -3.7174 O   0  0  0  0  0  0  0  0  0  0  0  0
   -0.4762   -0.9447    1.9856 O   0  0  0  0  0  0  0  0  0  0  0  0
   -5.2787    1.0192   -0.4102 O   0  0  0  0  0  0  0  0  0  0  0  0
   -2.8603    1.5700    0.1198 O   0  0  0  0  0  0  0  0  0  0  0  0
   -3.4449   -0.6905   -0.8429 O   0  0  0  0  0  0  0  0  0  0  0  0
   -3.9495    0.3825    0.2554 P   0  0  0  0  0  0  0  0  0  0  0  0
   -4.6971   -1.6680   -3.9981 H   0  0  0  0  0  0  0  0  0  0  0  0
    1.9395   -3.2725    0.3627 H   0  0  0  0  0  0  0  0  0  0  0  0
    2.1565   -2.0106    1.6532 H   0  0  0  0  0  0  0  0  0  0  0  0
    2.6379   -0.2957   -0.1066 H   0  0  0  0  0  0  0  0  0  0  0  0
    2.4187   -1.5575   -1.3966 H   0  0  0  0  0  0  0  0  0  0  0  0
   -1.8931   -5.5788   -4.9832 H   0  0  0  0  0  0  0  0  0  0  0  0
   -2.2867   -4.6093   -6.4241 H   0  0  0  0  0  0  0  0  0  0  0  0
   -0.6445   -4.5930   -5.7838 H   0  0  0  0  0  0  0  0  0  0  0  0
    0.4625   -1.0868   -2.5231 H   0  0  0  0  0  0  0  0  0  0  0  0
   -0.8467   -0.2654   -1.6727 H   0  0  0  0  0  0  0  0  0  0  0  0
   -2.5253    0.5738   -2.1785 H   0  0  0  0  0  0  0  0  0  0  0  0
   -4.2062    0.1616   -2.5541 H   0  0  0  0  0  0  0  0  0  0  0  0
   -1.1279   -2.2056   -0.3410 H   0  0  0  0  0  0  0  0  0  0  0  0
    0.6904   -2.9349   -3.0733 H   0  0  0  0  0  0  0  0  0  0  0  0
   -0.3323   -1.9144    2.0237 H   0  0  0  0  0  0  0  0  0  0  0  0
   -6.0675    0.4492   -0.5329 H   0  0  0  0  0  0  0  0  0  0  0  0
   -2.9930    2.3964    0.6312 H   0  0  0  0  0  0  0  0  0  0  0  0
  1  2  2  0  0  0  0
  1 13  1  0  0  0  0
  1 23  1  0  0  0  0
  2  3  1  0  0  0  0
  2 12  1  0  0  0  0
  3  4  2  0  0  0  0
  3 11  1  0  0  0  0
  4  5  1  0  0  0  0
  4 17  1  0  0  0  0
  5 10  1  0  0  0  0
  5 13  2  0  0  0  0
  6  9  1  0  0  0  0
  6 15  2  0  0  0  0
  6 18  1  0  0  0  0
  7  8  1  0  0  0  0
  7  9  1  0  0  0  0
  7 24  1  0  0  0  0
  7 25  1  0  0  0  0
  8  9  1  0  0  0  0
  8 26  1  0  0  0  0
  8 27  1  0  0  0  0
  9 14  1  0  0  0  0
 10 28  1  0  0  0  0
 10 29  1  0  0  0  0
 10 30  1  0  0  0  0
 11 14  1  0  0  0  0
 11 31  1  0  0  0  0
 11 32  1  0  0  0  0
 12 21  1  0  0  0  0
 12 33  1  0  0  0  0
 12 34  1  0  0  0  0
 14 35  1  0  0  0  0
 16 22  2  0  0  0  0
 17 36  1  0  0  0  0
 18 37  1  0  0  0  0
 19 22  1  0  0  0  0
 19 38  1  0  0  0  0
 20 22  1  0  0  0  0
 20 39  1  0  0  0  0
 21 22  1  0  0  0  0
M  END
$$$$
DrugBank_2543
 OpenBabel01151909533D

 59 61  0  0  0  0  0  0  0  0999 V2000
   -7.4701   -3.8253    7.5687 C   0  0  0  0  0  0  0  0  0  0  0  0
   -6.9733   -6.1265    7.0259 C   0  0  0  0  0  0  0  0  0  0  0  0
   -4.8938   -3.5055    3.1958 C   0  0  0  0  0  0  0  0  0  0  0  0
   -8.1235   -4.2401    8.7291 C   0  0  0  0  0  0  0  0  0  0  0  0
   -7.6267   -6.5413    8.1864 C   0  0  0  0  0  0  0  0  0  0  0  0
   -6.2586   -3.7905    3.1554 C   0  0  0  0  0  0  0  0  0  0  0  0
   -2.8720   -0.8685    3.6613 C   0  0  0  0  0  0  0  0  0  0  0  0
   -6.8950   -4.7685    6.7171 C   0  0  0  0  0  0  0  0  0  0  0  0
   -6.2142   -4.3367    5.5084 C   0  0  0  0  0  0  0  0  0  0  0  0
   -4.1891   -3.6362    4.3925 C   0  0  0  0  0  0  0  0  0  0  0  0
   -2.1894   -2.0348    4.0558 C   0  0  0  0  0  0  0  0  0  0  0  0
   -4.8494   -4.0517    5.5488 C   0  0  0  0  0  0  0  0  0  0  0  0
   -8.2019   -5.5980    9.0380 C   0  0  0  0  0  0  0  0  0  0  0  0
   -6.9189   -4.2060    4.3117 C   0  0  0  0  0  0  0  0  0  0  0  0
   -0.8631   -1.6782    4.0403 C   0  0  0  0  0  0  0  0  0  0  0  0
   -2.7161   -3.3200    4.4013 C   0  0  0  0  0  0  0  0  0  0  0  0
   -4.0793   -4.1869    6.8272 C   0  0  0  0  0  0  0  0  0  0  0  0
    1.3001   -0.1382    2.4077 C   0  0  0  0  0  0  0  0  0  0  0  0
    1.1341    0.5913    4.8201 C   0  0  0  0  0  0  0  0  0  0  0  0
    0.0639    1.9278    3.0207 C   0  0  0  0  0  0  0  0  0  0  0  0
   -8.8821   -7.4056   10.4256 C   0  0  0  0  0  0  0  0  0  0  0  0
   -9.2888   -4.3169    2.6061 C   0  0  0  0  0  0  0  0  0  0  0  0
    0.3752    0.4814    3.4788 C   0  0  0  0  0  0  0  0  0  0  0  0
   -2.0475    0.1526    3.4134 N   0  0  0  0  0  0  0  0  0  0  0  0
   -0.8331   -0.3708    3.6528 N   0  0  0  0  0  0  0  0  0  0  0  0
   -1.9614   -4.2615    4.7344 O   0  0  0  0  0  0  0  0  0  0  0  0
    0.2445   -2.3520    4.3172 O   0  0  0  0  0  0  0  0  0  0  0  0
   -8.9654   -6.0857    4.5124 O   0  0  0  0  0  0  0  0  0  0  0  0
   -9.4961   -3.5838    5.1378 O   0  0  0  0  0  0  0  0  0  0  0  0
   -8.8389   -6.0024   10.1705 O   0  0  0  0  0  0  0  0  0  0  0  0
   -8.6346   -4.5508    4.1990 S   0  0  0  0  0  0  0  0  0  0  0  0
   -7.4173   -2.7632    7.3416 H   0  0  0  0  0  0  0  0  0  0  0  0
   -6.5300   -6.8740    6.3723 H   0  0  0  0  0  0  0  0  0  0  0  0
   -4.3910   -3.1824    2.2878 H   0  0  0  0  0  0  0  0  0  0  0  0
   -8.5694   -3.5006    9.3887 H   0  0  0  0  0  0  0  0  0  0  0  0
   -7.6844   -7.6005    8.4220 H   0  0  0  0  0  0  0  0  0  0  0  0
   -6.7958   -3.6846    2.2166 H   0  0  0  0  0  0  0  0  0  0  0  0
   -3.9358   -0.7180    3.5423 H   0  0  0  0  0  0  0  0  0  0  0  0
   -3.6754   -5.2001    6.9162 H   0  0  0  0  0  0  0  0  0  0  0  0
   -3.2508   -3.4715    6.8625 H   0  0  0  0  0  0  0  0  0  0  0  0
   -4.7191   -3.9838    7.6927 H   0  0  0  0  0  0  0  0  0  0  0  0
    0.7850   -0.2275    1.4443 H   0  0  0  0  0  0  0  0  0  0  0  0
    2.1976    0.4653    2.2349 H   0  0  0  0  0  0  0  0  0  0  0  0
    1.6298   -1.1403    2.7059 H   0  0  0  0  0  0  0  0  0  0  0  0
    0.5159    1.0267    5.6123 H   0  0  0  0  0  0  0  0  0  0  0  0
    1.4576   -0.3946    5.1734 H   0  0  0  0  0  0  0  0  0  0  0  0
    2.0263    1.2197    4.7160 H   0  0  0  0  0  0  0  0  0  0  0  0
   -0.5933    2.4350    3.7375 H   0  0  0  0  0  0  0  0  0  0  0  0
    0.9754    2.5314    2.9405 H   0  0  0  0  0  0  0  0  0  0  0  0
   -0.4474    1.9431    2.0512 H   0  0  0  0  0  0  0  0  0  0  0  0
   -9.4187   -7.5906   11.3594 H   0  0  0  0  0  0  0  0  0  0  0  0
   -7.8636   -7.7958   10.4949 H   0  0  0  0  0  0  0  0  0  0  0  0
   -9.4047   -7.9005    9.6036 H   0  0  0  0  0  0  0  0  0  0  0  0
  -10.3536   -4.5537    2.6329 H   0  0  0  0  0  0  0  0  0  0  0  0
   -9.1358   -3.2750    2.3206 H   0  0  0  0  0  0  0  0  0  0  0  0
   -8.7661   -4.9829    1.9180 H   0  0  0  0  0  0  0  0  0  0  0  0
    0.0584   -3.2807    4.5814 H   0  0  0  0  0  0  0  0  0  0  0  0
   -9.9217   -6.3191    4.4590 H   0  0  0  0  0  0  0  0  0  0  0  0
  -10.4690   -3.7411    5.1073 H   0  0  0  0  0  0  0  0  0  0  0  0
  1  4  2  0  0  0  0
  1  8  1  0  0  0  0
  1 32  1  0  0  0  0
  2  5  1  0  0  0  0
  2  8  2  0  0  0  0
  2 33  1  0  0  0  0
  3  6  2  0  0  0  0
  3 10  1  0  0  0  0
  3 34  1  0  0  0  0
  4 13  1  0  0  0  0
  4 35  1  0  0  0  0
  5 13  2  0  0  0  0
  5 36  1  0  0  0  0
  6 14  1  0  0  0  0
  6 37  1  0  0  0  0
  7 11  1  0  0  0  0
  7 24  2  0  0  0  0
  7 38  1  0  0  0  0
  8  9  1  0  0  0  0
  9 12  1  0  0  0  0
  9 14  2  0  0  0  0
 10 12  2  0  0  0  0
 10 16  1  0  0  0  0
 11 15  2  0  0  0  0
 11 16  1  0  0  0  0
 12 17  1  0  0  0  0
 13 30  1  0  0  0  0
 14 31  1  0  0  0  0
 15 25  1  0  0  0  0
 15 27  1  0  0  0  0
 16 26  2  0  0  0  0
 17 39  1  0  0  0  0
 17 40  1  0  0  0  0
 17 41  1  0  0  0  0
 18 23  1  0  0  0  0
 18 42  1  0  0  0  0
 18 43  1  0  0  0  0
 18 44  1  0  0  0  0
 19 23  1  0  0  0  0
 19 45  1  0  0  0  0
 19 46  1  0  0  0  0
 19 47  1  0  0  0  0
 20 23  1  0  0  0  0
 20 48  1  0  0  0  0
 20 49  1  0  0  0  0
 20 50  1  0  0  0  0
 21 30  1  0  0  0  0
 21 51  1  0  0  0  0
 21 52  1  0  0  0  0
 21 53  1  0  0  0  0
 22 31  1  0  0  0  0
 22 54  1  0  0  0  0
 22 55  1  0  0  0  0
 22 56  1  0  0  0  0
 23 25  1  0  0  0  0
 24 25  1  0  0  0  0
 27 57  1  0  0  0  0
 28 31  1  0  0  0  0
 28 58  1  0  0  0  0
 29 31  1  0  0  0  0
 29 59  1  0  0  0  0
M  END
$$$$
DrugBank_5176
 OpenBabel01151909533D

 54 57  0  0  0  0  0  0  0  0999 V2000
   -5.0626   -0.1900   -6.7205 C   0  0  0  0  0  0  0  0  0  0  0  0
   -2.9503   -0.6605   -7.7945 C   0  0  0  0  0  0  0  0  0  0  0  0
   -5.7146   -0.3172   -7.9469 C   0  0  0  0  0  0  0  0  0  0  0  0
   -3.6023   -0.7878   -9.0210 C   0  0  0  0  0  0  0  0  0  0  0  0
   -1.5764    0.7646   -2.1911 C   0  0  0  0  0  0  0  0  0  0  0  0
   -1.0005   -1.9034   -2.9950 C   0  0  0  0  0  0  0  0  0  0  0  0
   -2.0778    0.2694   -3.4075 C   0  0  0  0  0  0  0  0  0  0  0  0
   -3.6804   -0.3616   -6.6442 C   0  0  0  0  0  0  0  0  0  0  0  0
   -2.8780    0.7840   -4.4614 C   0  0  0  0  0  0  0  0  0  0  0  0
   -0.7939   -0.0807   -1.3925 C   0  0  0  0  0  0  0  0  0  0  0  0
   -0.5125   -1.3904   -1.7895 C   0  0  0  0  0  0  0  0  0  0  0  0
   -1.7753   -1.0399   -3.7673 C   0  0  0  0  0  0  0  0  0  0  0  0
   -4.9845   -0.6162   -9.0972 C   0  0  0  0  0  0  0  0  0  0  0  0
   -3.0086   -0.2312   -5.3805 C   0  0  0  0  0  0  0  0  0  0  0  0
   -3.4550    2.0923   -4.5825 C   0  0  0  0  0  0  0  0  0  0  0  0
   -1.0105    0.2191    1.2008 C   0  0  0  0  0  0  0  0  0  0  0  0
   -0.9674    1.5950    0.6135 C   0  0  0  0  0  0  0  0  0  0  0  0
   -0.2589    0.4596   -0.0874 C   0  0  0  0  0  0  0  0  0  0  0  0
   -4.4075    4.0788   -3.3530 C   0  0  0  0  0  0  0  0  0  0  0  0
    2.1401   -3.5485   -2.4549 C   0  0  0  0  0  0  0  0  0  0  0  0
   -0.3355   -3.5027   -0.4730 C   0  0  0  0  0  0  0  0  0  0  0  0
   -1.0515   -3.2397    0.8391 C   0  0  0  0  0  0  0  0  0  0  0  0
   -3.7990    2.7686   -3.3957 N   0  0  0  0  0  0  0  0  0  0  0  0
    0.2882   -2.2423   -0.9632 N   0  0  0  0  0  0  0  0  0  0  0  0
   -3.6658    2.6091   -5.7052 O   0  0  0  0  0  0  0  0  0  0  0  0
    2.6753   -2.7035   -0.0523 O   0  0  0  0  0  0  0  0  0  0  0  0
    2.3907   -1.0108   -1.8906 O   0  0  0  0  0  0  0  0  0  0  0  0
   -2.3432   -1.3418   -4.9688 O   0  0  0  0  0  0  0  0  0  0  0  0
   -0.1104   -2.8029    1.8114 O   0  0  0  0  0  0  0  0  0  0  0  0
   -5.6107   -0.7394  -10.2750 F   0  0  0  0  0  0  0  0  0  0  0  0
    1.9896   -2.2480   -1.2478 S   0  0  0  0  0  0  0  0  0  0  0  0
   -5.6462    0.0440   -5.8330 H   0  0  0  0  0  0  0  0  0  0  0  0
   -1.8723   -0.7979   -7.7514 H   0  0  0  0  0  0  0  0  0  0  0  0
   -6.7908   -0.1846   -8.0061 H   0  0  0  0  0  0  0  0  0  0  0  0
   -3.0338   -1.0205   -9.9167 H   0  0  0  0  0  0  0  0  0  0  0  0
   -1.7914    1.7826   -1.8784 H   0  0  0  0  0  0  0  0  0  0  0  0
   -0.7920   -2.9171   -3.3184 H   0  0  0  0  0  0  0  0  0  0  0  0
   -0.4212    0.0309    2.0896 H   0  0  0  0  0  0  0  0  0  0  0  0
   -1.9541   -0.3111    1.1701 H   0  0  0  0  0  0  0  0  0  0  0  0
   -1.8813    1.9898    0.1879 H   0  0  0  0  0  0  0  0  0  0  0  0
   -0.3482    2.3345    1.1058 H   0  0  0  0  0  0  0  0  0  0  0  0
    0.8278    0.4577   -0.0148 H   0  0  0  0  0  0  0  0  0  0  0  0
   -3.6377    4.8473   -3.2451 H   0  0  0  0  0  0  0  0  0  0  0  0
   -5.0955    4.1486   -2.5061 H   0  0  0  0  0  0  0  0  0  0  0  0
   -4.9656    4.2666   -4.2742 H   0  0  0  0  0  0  0  0  0  0  0  0
    3.1933   -3.6511   -2.7210 H   0  0  0  0  0  0  0  0  0  0  0  0
    1.7654   -4.4732   -2.0133 H   0  0  0  0  0  0  0  0  0  0  0  0
    1.5492   -3.2756   -3.3304 H   0  0  0  0  0  0  0  0  0  0  0  0
    0.4540   -4.2512   -0.3512 H   0  0  0  0  0  0  0  0  0  0  0  0
   -1.0443   -3.8498   -1.2309 H   0  0  0  0  0  0  0  0  0  0  0  0
   -1.5127   -4.1620    1.2058 H   0  0  0  0  0  0  0  0  0  0  0  0
   -1.8254   -2.4730    0.7287 H   0  0  0  0  0  0  0  0  0  0  0  0
   -3.6707    2.2902   -2.5100 H   0  0  0  0  0  0  0  0  0  0  0  0
   -0.6070   -2.6467    2.6307 H   0  0  0  0  0  0  0  0  0  0  0  0
  1  3  2  0  0  0  0
  1  8  1  0  0  0  0
  1 32  1  0  0  0  0
  2  4  1  0  0  0  0
  2  8  2  0  0  0  0
  2 33  1  0  0  0  0
  3 13  1  0  0  0  0
  3 34  1  0  0  0  0
  4 13  2  0  0  0  0
  4 35  1  0  0  0  0
  5  7  2  0  0  0  0
  5 10  1  0  0  0  0
  5 36  1  0  0  0  0
  6 11  1  0  0  0  0
  6 12  2  0  0  0  0
  6 37  1  0  0  0  0
  7  9  1  0  0  0  0
  7 12  1  0  0  0  0
  8 14  1  0  0  0  0
  9 14  2  0  0  0  0
  9 15  1  0  0  0  0
 10 11  2  0  0  0  0
 10 18  1  0  0  0  0
 11 24  1  0  0  0  0
 12 28  1  0  0  0  0
 13 30  1  0  0  0  0
 14 28  1  0  0  0  0
 15 23  1  0  0  0  0
 15 25  2  0  0  0  0
 16 17  1  0  0  0  0
 16 18  1  0  0  0  0
 16 38  1  0  0  0  0
 16 39  1  0  0  0  0
 17 18  1  0  0  0  0
 17 40  1  0  0  0  0
 17 41  1  0  0  0  0
 18 42  1  0  0  0  0
 19 23  1  0  0  0  0
 19 43  1  0  0  0  0
 19 44  1  0  0  0  0
 19 45  1  0  0  0  0
 20 31  1  0  0  0  0
 20 46  1  0  0  0  0
 20 47  1  0  0  0  0
 20 48  1  0  0  0  0
 21 22  1  0  0  0  0
 21 24  1  0  0  0  0
 21 49  1  0  0  0  0
 21 50  1  0  0  0  0
 22 29  1  0  0  0  0
 22 51  1  0  0  0  0
 22 52  1  0  0  0  0
 23 53  1  0  0  0  0
 24 31  1  0  0  0  0
 26 31  2  0  0  0  0
 27 31  2  0  0  0  0
 29 54  1  0  0  0  0
M  END
$$$$
DrugBank_2563
 OpenBabel01151909533D

 26 26  0  0  1  0  0  0  0  0999 V2000
   -0.4555    0.9610   -0.8643 C   0  0  0  0  0  0  0  0  0  0  0  0
   -0.2552   -0.3985   -1.5074 C   0  0  0  0  0  0  0  0  0  0  0  0
    0.0881   -0.3312    1.1119 C   0  0  0  0  0  0  0  0  0  0  0  0
   -0.9239    0.6652    0.5568 C   0  0  1  0  0  0  0  0  0  0  0  0
   -2.1844    2.5770    5.0462 C   0  0  0  0  0  0  0  0  0  0  0  0
   -1.0170    1.9228    1.4080 C   0  0  0  0  0  0  0  0  0  0  0  0
   -1.6481    2.8795    3.6560 C   0  0  0  0  0  0  0  0  0  0  0  0
   -1.5241    1.6093    2.8150 C   0  0  0  0  0  0  0  0  0  0  0  0
    2.0235   -1.3514   -0.4498 O   0  0  0  0  0  0  0  0  0  0  0  0
    0.5400   -1.4679   -0.2551 S   0  0  2  0  0  0  0  0  0  0  0  0
    0.4894    1.5191   -0.8529 H   0  0  0  0  0  0  0  0  0  0  0  0
   -1.1870    1.5562   -1.4204 H   0  0  0  0  0  0  0  0  0  0  0  0
   -1.2159   -0.8580   -1.7601 H   0  0  0  0  0  0  0  0  0  0  0  0
    0.3659   -0.3520   -2.4056 H   0  0  0  0  0  0  0  0  0  0  0  0
    1.0063    0.1625    1.4475 H   0  0  0  0  0  0  0  0  0  0  0  0
   -0.3217   -0.9187    1.9380 H   0  0  0  0  0  0  0  0  0  0  0  0
   -1.9146    0.1925    0.5174 H   0  0  0  0  0  0  0  0  0  0  0  0
   -3.1640    2.0914    4.9918 H   0  0  0  0  0  0  0  0  0  0  0  0
   -2.2956    3.5028    5.6193 H   0  0  0  0  0  0  0  0  0  0  0  0
   -1.5038    1.9177    5.5943 H   0  0  0  0  0  0  0  0  0  0  0  0
   -0.0282    2.3920    1.4635 H   0  0  0  0  0  0  0  0  0  0  0  0
   -1.6892    2.6372    0.9195 H   0  0  0  0  0  0  0  0  0  0  0  0
   -0.6688    3.3639    3.7459 H   0  0  0  0  0  0  0  0  0  0  0  0
   -2.3179    3.5911    3.1593 H   0  0  0  0  0  0  0  0  0  0  0  0
   -0.8375    0.9089    3.3060 H   0  0  0  0  0  0  0  0  0  0  0  0
   -2.5004    1.1134    2.7522 H   0  0  0  0  0  0  0  0  0  0  0  0
  1  2  1  0  0  0  0
  1  4  1  0  0  0  0
  1 11  1  0  0  0  0
  1 12  1  0  0  0  0
  2 10  1  0  0  0  0
  2 13  1  0  0  0  0
  2 14  1  0  0  0  0
  3  4  1  0  0  0  0
  3 10  1  0  0  0  0
  3 15  1  0  0  0  0
  3 16  1  0  0  0  0
  4  6  1  0  0  0  0
  4 17  1  6  0  0  0
  5  7  1  0  0  0  0
  5 18  1  0  0  0  0
  5 19  1  0  0  0  0
  5 20  1  0  0  0  0
  6  8  1  0  0  0  0
  6 21  1  0  0  0  0
  6 22  1  0  0  0  0
  7  8  1  0  0  0  0
  7 23  1  0  0  0  0
  7 24  1  0  0  0  0
  8 25  1  0  0  0  0
  8 26  1  0  0  0  0
 10  9  2  6  0  0  0
M  END
$$$$
DrugBank_2570
 OpenBabel01151909533D

 32 32  0  0  1  0  0  0  0  0999 V2000
   -2.0036   -0.7692    0.1213 C   0  0  1  0  0  0  0  0  0  0  0  0
   -0.8744    0.1153    0.6532 C   0  0  2  0  0  0  0  0  0  0  0  0
   -1.6059   -2.2393    0.2643 C   0  0  1  0  0  0  0  0  0  0  0  0
   -0.4985   -0.2969    2.0835 C   0  0  2  0  0  0  0  0  0  0  0  0
   -1.1830   -2.5551    1.7022 C   0  0  2  0  0  0  0  0  0  0  0  0
    0.6905    0.5030    2.6066 C   0  0  0  0  0  0  0  0  0  0  0  0
   -3.4431    1.9355    1.1815 O   0  0  0  0  0  0  0  0  0  0  0  0
   -4.3925    0.8211   -0.8638 O   0  0  0  0  0  0  0  0  0  0  0  0
   -3.7213   -2.2085   -2.1999 O   0  0  0  0  0  0  0  0  0  0  0  0
   -1.7845   -3.8083   -2.3272 O   0  0  0  0  0  0  0  0  0  0  0  0
   -0.1318   -1.6801    2.1141 O   0  0  0  0  0  0  0  0  0  0  0  0
   -1.2674    1.4816    0.6248 O   0  0  0  0  0  0  0  0  0  0  0  0
   -0.7236   -3.9060    1.7373 O   0  0  0  0  0  0  0  0  0  0  0  0
    0.9724    0.0793    3.9279 O   0  0  0  0  0  0  0  0  0  0  0  0
   -5.4820    0.5199    1.3599 O   0  0  0  0  0  0  0  0  0  0  0  0
   -4.0466   -4.6140   -1.6515 O   0  0  0  0  0  0  0  0  0  0  0  0
   -3.1850   -0.5163    0.8875 O   0  0  0  0  0  0  0  0  0  0  0  0
   -2.6978   -3.0762   -0.1032 O   0  0  0  0  0  0  0  0  0  0  0  0
   -4.0904    0.7977    0.5553 S   0  0  0  0  0  0  0  0  0  0  0  0
   -3.0045   -3.3592   -1.6825 S   0  0  0  0  0  0  0  0  0  0  0  0
   -2.2464   -0.5182   -0.9173 H   0  0  0  0  0  0  0  0  0  0  0  0
   -0.0023   -0.0030   -0.0028 H   0  0  0  0  0  0  0  0  0  0  0  0
   -0.7764   -2.4602   -0.4183 H   0  0  0  0  0  0  0  0  0  0  0  0
   -1.3371   -0.1300    2.7703 H   0  0  0  0  0  0  0  0  0  0  0  0
   -2.0313   -2.4784    2.3936 H   0  0  0  0  0  0  0  0  0  0  0  0
    0.4498    1.5662    2.6128 H   0  0  0  0  0  0  0  0  0  0  0  0
    1.5632    0.3271    1.9777 H   0  0  0  0  0  0  0  0  0  0  0  0
   -1.4608    1.6975   -0.3016 H   0  0  0  0  0  0  0  0  0  0  0  0
   -0.4622   -4.0830    2.6536 H   0  0  0  0  0  0  0  0  0  0  0  0
    1.7314    0.6015    4.2393 H   0  0  0  0  0  0  0  0  0  0  0  0
   -5.9379   -0.3271    1.1453 H   0  0  0  0  0  0  0  0  0  0  0  0
   -3.7379   -5.4139   -1.1656 H   0  0  0  0  0  0  0  0  0  0  0  0
  1  2  1  1  0  0  0
  1 17  1  0  0  0  0
  1 21  1  0  0  0  0
  2  4  1  1  0  0  0
  2 12  1  0  0  0  0
  2 22  1  0  0  0  0
  3  1  1  6  0  0  0
  3 18  1  0  0  0  0
  3 23  1  0  0  0  0
  4  6  1  0  0  0  0
  4 11  1  0  0  0  0
  4 24  1  1  0  0  0
  5  3  1  6  0  0  0
  5 11  1  0  0  0  0
  5 13  1  0  0  0  0
  5 25  1  0  0  0  0
  6 14  1  0  0  0  0
  6 26  1  0  0  0  0
  6 27  1  0  0  0  0
  7 19  2  0  0  0  0
  8 19  2  0  0  0  0
  9 20  2  0  0  0  0
 10 20  2  0  0  0  0
 12 28  1  0  0  0  0
 13 29  1  0  0  0  0
 14 30  1  0  0  0  0
 15 19  1  0  0  0  0
 15 31  1  0  0  0  0
 16 20  1  0  0  0  0
 16 32  1  0  0  0  0
 17 19  1  0  0  0  0
 18 20  1  0  0  0  0
M  END
$$$$
DrugBank_2573
 OpenBabel01151909533D

 48 51  0  0  0  0  0  0  0  0999 V2000
    5.9967    3.8765   10.0557 C   0  0  0  0  0  0  0  0  0  0  0  0
    3.1321   -2.6256    7.7625 C   0  0  0  0  0  0  0  0  0  0  0  0
   -3.4844    0.9332    7.4135 C   0  0  0  0  0  0  0  0  0  0  0  0
    6.4048    3.0201    9.0332 C   0  0  0  0  0  0  0  0  0  0  0  0
    4.6410    4.0057   10.3578 C   0  0  0  0  0  0  0  0  0  0  0  0
    2.4081   -1.9546    8.7480 C   0  0  0  0  0  0  0  0  0  0  0  0
    3.8442   -1.9021    6.8058 C   0  0  0  0  0  0  0  0  0  0  0  0
   -4.3503    0.1617    6.6478 C   0  0  0  0  0  0  0  0  0  0  0  0
   -2.2802    1.3655    6.8642 C   0  0  0  0  0  0  0  0  0  0  0  0
    5.4574    2.2929    8.3128 C   0  0  0  0  0  0  0  0  0  0  0  0
    3.6936    3.2785    9.6374 C   0  0  0  0  0  0  0  0  0  0  0  0
    2.3960   -0.5601    8.7767 C   0  0  0  0  0  0  0  0  0  0  0  0
    3.8321   -0.5076    6.8346 C   0  0  0  0  0  0  0  0  0  0  0  0
   -4.0098   -0.1751    5.3359 C   0  0  0  0  0  0  0  0  0  0  0  0
   -1.9384    1.0260    5.5441 C   0  0  0  0  0  0  0  0  0  0  0  0
    4.1017    2.4220    8.6148 C   0  0  0  0  0  0  0  0  0  0  0  0
    3.1080    0.1634    7.8200 C   0  0  0  0  0  0  0  0  0  0  0  0
   -2.8111    0.2459    4.7661 C   0  0  0  0  0  0  0  0  0  0  0  0
   -0.7387    1.4454    4.9690 C   0  0  0  0  0  0  0  0  0  0  0  0
   -0.4696    1.0748    3.6696 C   0  0  0  0  0  0  0  0  0  0  0  0
    2.1284    2.2664    7.1390 C   0  0  0  0  0  0  0  0  0  0  0  0
    1.0837    1.5715    6.3470 C   0  0  0  0  0  0  0  0  0  0  0  0
    3.0954    1.6503    7.8502 C   0  0  0  0  0  0  0  0  0  0  0  0
    0.7930    1.4869    2.9909 C   0  0  0  0  0  0  0  0  0  0  0  0
   -2.4954   -0.0853    3.5025 N   0  0  0  0  0  0  0  0  0  0  0  0
   -1.3174    0.3281    2.9419 N   0  0  0  0  0  0  0  0  0  0  0  0
    0.1873    2.2257    5.6773 N   0  0  0  0  0  0  0  0  0  0  0  0
    0.7742    2.8717    2.5933 N   0  0  0  0  0  0  0  0  0  0  0  0
    6.7344    4.4418   10.6175 H   0  0  0  0  0  0  0  0  0  0  0  0
    3.1426   -3.7114    7.7409 H   0  0  0  0  0  0  0  0  0  0  0  0
   -3.7455    1.1966    8.4339 H   0  0  0  0  0  0  0  0  0  0  0  0
    7.4605    2.9185    8.7986 H   0  0  0  0  0  0  0  0  0  0  0  0
    4.3232    4.6716   11.1547 H   0  0  0  0  0  0  0  0  0  0  0  0
    1.8545   -2.5178    9.4937 H   0  0  0  0  0  0  0  0  0  0  0  0
    4.4089   -2.4244    6.0392 H   0  0  0  0  0  0  0  0  0  0  0  0
   -5.2913   -0.1801    7.0687 H   0  0  0  0  0  0  0  0  0  0  0  0
   -1.6212    1.9683    7.4846 H   0  0  0  0  0  0  0  0  0  0  0  0
    5.7910    1.6293    7.5184 H   0  0  0  0  0  0  0  0  0  0  0  0
    2.6405    3.3899    9.8847 H   0  0  0  0  0  0  0  0  0  0  0  0
    1.8268   -0.0512    9.5511 H   0  0  0  0  0  0  0  0  0  0  0  0
    4.3921    0.0423    6.0819 H   0  0  0  0  0  0  0  0  0  0  0  0
   -4.7027   -0.7795    4.7540 H   0  0  0  0  0  0  0  0  0  0  0  0
    2.0704    3.3524    7.1004 H   0  0  0  0  0  0  0  0  0  0  0  0
    1.1064    0.4683    6.3448 H   0  0  0  0  0  0  0  0  0  0  0  0
    1.6612    1.3444    3.6494 H   0  0  0  0  0  0  0  0  0  0  0  0
    0.9785    0.8894    2.0878 H   0  0  0  0  0  0  0  0  0  0  0  0
    1.3473    3.1658    1.8202 H   0  0  0  0  0  0  0  0  0  0  0  0
    0.3577    3.5508    3.2081 H   0  0  0  0  0  0  0  0  0  0  0  0
  1  4  2  0  0  0  0
  1  5  1  0  0  0  0
  1 29  1  0  0  0  0
  2  6  2  0  0  0  0
  2  7  1  0  0  0  0
  2 30  1  0  0  0  0
  3  8  2  0  0  0  0
  3  9  1  0  0  0  0
  3 31  1  0  0  0  0
  4 10  1  0  0  0  0
  4 32  1  0  0  0  0
  5 11  2  0  0  0  0
  5 33  1  0  0  0  0
  6 12  1  0  0  0  0
  6 34  1  0  0  0  0
  7 13  2  0  0  0  0
  7 35  1  0  0  0  0
  8 14  1  0  0  0  0
  8 36  1  0  0  0  0
  9 15  2  0  0  0  0
  9 37  1  0  0  0  0
 10 16  2  0  0  0  0
 10 38  1  0  0  0  0
 11 16  1  0  0  0  0
 11 39  1  0  0  0  0
 12 17  2  0  0  0  0
 12 40  1  0  0  0  0
 13 17  1  0  0  0  0
 13 41  1  0  0  0  0
 14 18  2  0  0  0  0
 14 42  1  0  0  0  0
 15 18  1  0  0  0  0
 15 19  1  0  0  0  0
 16 23  1  0  0  0  0
 17 23  1  0  0  0  0
 18 25  1  0  0  0  0
 19 20  2  0  0  0  0
 19 27  1  0  0  0  0
 20 24  1  0  0  0  0
 20 26  1  0  0  0  0
 21 22  1  0  0  0  0
 21 23  2  0  0  0  0
 21 43  1  0  0  0  0
 22 27  2  0  0  0  0
 22 44  1  0  0  0  0
 24 28  1  0  0  0  0
 24 45  1  0  0  0  0
 24 46  1  0  0  0  0
 25 26  2  0  0  0  0
 28 47  1  0  0  0  0
 28 48  1  0  0  0  0
M  END
$$$$
DrugBank_2584
 OpenBabel01151909533D

 37 39  0  0  1  0  0  0  0  0999 V2000
   -1.8556    1.3209    0.7687 C   0  0  0  0  0  0  0  0  0  0  0  0
   -1.9220   -0.1508    0.4101 C   0  0  1  0  0  0  0  0  0  0  0  0
   -1.1910   -0.5025   -0.8922 C   0  0  1  0  0  0  0  0  0  0  0  0
    0.1132    0.2617   -1.0936 C   0  0  1  0  0  0  0  0  0  0  0  0
    0.0518    1.7180   -0.6601 C   0  0  1  0  0  0  0  0  0  0  0  0
    2.1061    0.8507   -0.1788 C   0  0  0  0  0  0  0  0  0  0  0  0
    3.2794    0.6107   -1.1216 C   0  0  0  0  0  0  0  0  0  0  0  0
    2.5778    0.9618    1.2652 C   0  0  0  0  0  0  0  0  0  0  0  0
   -0.6053    2.6403   -1.6777 C   0  0  0  0  0  0  0  0  0  0  0  0
   -1.0562    6.5610   -1.0421 N   0  0  0  0  0  0  0  0  0  0  0  0
    0.4744   -2.7259    1.1011 O   0  0  0  0  0  0  0  0  0  0  0  0
   -1.9717   -3.3572    0.9600 O   0  0  0  0  0  0  0  0  0  0  0  0
   -0.4601    5.3605   -3.2329 O   0  0  0  0  0  0  0  0  0  0  0  0
   -2.6854    4.9236   -2.1470 O   0  0  0  0  0  0  0  0  0  0  0  0
   -0.5450    1.8581    0.6341 O   0  0  0  0  0  0  0  0  0  0  0  0
    1.1808   -0.2413   -0.2780 O   0  0  0  0  0  0  0  0  0  0  0  0
   -1.3065   -0.9780    1.4117 O   0  0  0  0  0  0  0  0  0  0  0  0
   -0.9396   -1.9186   -0.8212 O   0  0  0  0  0  0  0  0  0  0  0  0
    1.4466    2.0658   -0.5687 O   0  0  0  0  0  0  0  0  0  0  0  0
   -0.6122    3.9583   -1.1576 O   0  0  0  0  0  0  0  0  0  0  0  0
   -0.8936   -2.4137    0.7411 S   0  0  0  0  0  0  0  0  0  0  0  0
   -1.2606    5.1787   -2.0358 S   0  0  0  0  0  0  0  0  0  0  0  0
   -2.5471    1.9036    0.1515 H   0  0  0  0  0  0  0  0  0  0  0  0
   -2.1497    1.4634    1.8138 H   0  0  0  0  0  0  0  0  0  0  0  0
   -2.9701   -0.4703    0.3564 H   0  0  0  0  0  0  0  0  0  0  0  0
   -1.8562   -0.3026   -1.7399 H   0  0  0  0  0  0  0  0  0  0  0  0
    0.4480    0.1518   -2.1332 H   0  0  0  0  0  0  0  0  0  0  0  0
    2.9222    0.5341   -2.1484 H   0  0  0  0  0  0  0  0  0  0  0  0
    3.7886   -0.3149   -0.8539 H   0  0  0  0  0  0  0  0  0  0  0  0
    3.9869    1.4369   -1.0532 H   0  0  0  0  0  0  0  0  0  0  0  0
    1.7262    1.1331    1.9239 H   0  0  0  0  0  0  0  0  0  0  0  0
    3.2759    1.7929    1.3668 H   0  0  0  0  0  0  0  0  0  0  0  0
    3.0780    0.0411    1.5663 H   0  0  0  0  0  0  0  0  0  0  0  0
   -1.6327    2.3230   -1.8631 H   0  0  0  0  0  0  0  0  0  0  0  0
   -0.0443    2.6273   -2.6134 H   0  0  0  0  0  0  0  0  0  0  0  0
   -0.1295    6.6895   -0.6159 H   0  0  0  0  0  0  0  0  0  0  0  0
   -1.4555    7.4426   -1.3888 H   0  0  0  0  0  0  0  0  0  0  0  0
  1  2  1  0  0  0  0
  1 15  1  0  0  0  0
  1 23  1  0  0  0  0
  1 24  1  0  0  0  0
  2  3  1  6  0  0  0
  2 17  1  0  0  0  0
  2 25  1  0  0  0  0
  3  4  1  6  0  0  0
  3 18  1  0  0  0  0
  3 26  1  0  0  0  0
  4  5  1  1  0  0  0
  4 16  1  0  0  0  0
  4 27  1  0  0  0  0
  5  9  1  6  0  0  0
  5 15  1  0  0  0  0
  5 19  1  0  0  0  0
  6  7  1  0  0  0  0
  6  8  1  0  0  0  0
  6 16  1  0  0  0  0
  6 19  1  0  0  0  0
  7 28  1  0  0  0  0
  7 29  1  0  0  0  0
  7 30  1  0  0  0  0
  8 31  1  0  0  0  0
  8 32  1  0  0  0  0
  8 33  1  0  0  0  0
  9 20  1  0  0  0  0
  9 34  1  0  0  0  0
  9 35  1  0  0  0  0
 10 22  1  0  0  0  0
 10 36  1  0  0  0  0
 10 37  1  0  0  0  0
 11 21  2  0  0  0  0
 12 21  2  0  0  0  0
 13 22  2  0  0  0  0
 14 22  2  0  0  0  0
 17 21  1  0  0  0  0
 18 21  1  0  0  0  0
 20 22  1  0  0  0  0
M  END
$$$$
DrugBank_2585
 OpenBabel01151909533D

 19 18  0  0  0  0  0  0  0  0999 V2000
   -0.0803   -4.4395   -1.5722 C   0  0  0  0  0  0  0  0  0  0  0  0
    0.8568   -3.7419   -0.9203 C   0  0  0  0  0  0  0  0  0  0  0  0
    0.7216    0.6551    2.1744 C   0  0  0  0  0  0  0  0  0  0  0  0
    1.6489    1.5555    2.5278 C   0  0  0  0  0  0  0  0  0  0  0  0
    0.8002   -2.2643   -0.7132 C   0  0  0  0  0  0  0  0  0  0  0  0
    0.7328   -0.0622    0.8629 C   0  0  0  0  0  0  0  0  0  0  0  0
    2.1990   -2.1783    1.5852 O   0  0  0  0  0  0  0  0  0  0  0  0
    1.6014    2.3784    4.0459 S   0  0  0  0  0  0  0  0  0  0  0  0
    0.8086   -1.8593    1.1281 S   0  0  2  0  0  0  0  0  0  0  0  0
    0.0215   -5.5118   -1.6985 H   0  0  0  0  0  0  0  0  0  0  0  0
   -0.9590   -3.9589   -1.9877 H   0  0  0  0  0  0  0  0  0  0  0  0
    1.7220   -4.2737   -0.5322 H   0  0  0  0  0  0  0  0  0  0  0  0
   -0.1027    0.4273    2.8476 H   0  0  0  0  0  0  0  0  0  0  0  0
    2.4679    1.7936    1.8576 H   0  0  0  0  0  0  0  0  0  0  0  0
    1.6705   -1.7842   -1.1704 H   0  0  0  0  0  0  0  0  0  0  0  0
   -0.1039   -1.8208   -1.1418 H   0  0  0  0  0  0  0  0  0  0  0  0
   -0.1854    0.1557    0.3096 H   0  0  0  0  0  0  0  0  0  0  0  0
    1.5866    0.2195    0.2388 H   0  0  0  0  0  0  0  0  0  0  0  0
    2.7054    3.1196    3.8819 H   0  0  0  0  0  0  0  0  0  0  0  0
  1  2  2  0  0  0  0
  1 10  1  0  0  0  0
  1 11  1  0  0  0  0
  2  5  1  0  0  0  0
  2 12  1  0  0  0  0
  3  4  2  0  0  0  0
  3  6  1  0  0  0  0
  3 13  1  0  0  0  0
  4  8  1  0  0  0  0
  4 14  1  0  0  0  0
  5  9  1  0  0  0  0
  5 15  1  0  0  0  0
  5 16  1  0  0  0  0
  6  9  1  0  0  0  0
  6 17  1  0  0  0  0
  6 18  1  0  0  0  0
  8 19  1  0  0  0  0
  9  7  2  6  0  0  0
M  END
$$$$
DrugBank_2592
 OpenBabel01151909533D

 46 48  0  0  1  0  0  0  0  0999 V2000
    1.1182   -0.5184    5.1349 C   0  0  0  0  0  0  0  0  0  0  0  0
   -2.1322   -0.1230    2.2690 C   0  0  0  0  0  0  0  0  0  0  0  0
   -1.2345   -0.9935    3.9951 C   0  0  0  0  0  0  0  0  0  0  0  0
   -0.3236   -0.0630    3.5209 C   0  0  0  0  0  0  0  0  0  0  0  0
   -0.8714   -1.7051    5.1342 C   0  0  0  0  0  0  0  0  0  0  0  0
    0.1385    2.0525   -0.6912 C   0  0  2  0  0  0  0  0  0  0  0  0
    0.3852    0.9698    0.3367 C   0  0  2  0  0  0  0  0  0  0  0  0
   -1.2921    2.4556   -0.3738 C   0  0  2  0  0  0  0  0  0  0  0  0
   -0.3571    1.5191    1.5483 C   0  0  2  0  0  0  0  0  0  0  0  0
   -1.6307    3.8699   -0.8096 C   0  0  0  0  0  0  0  0  0  0  0  0
    0.8782    0.2329    4.0381 N   0  0  0  0  0  0  0  0  0  0  0  0
    0.3297   -1.4580    5.7103 N   0  0  0  0  0  0  0  0  0  0  0  0
   -2.3567   -1.0206    3.2058 N   0  0  0  0  0  0  0  0  0  0  0  0
   -0.9134    0.4840    2.4171 N   0  0  0  0  0  0  0  0  0  0  0  0
   -1.7341   -2.6687    5.6840 N   0  0  0  0  0  0  0  0  0  0  0  0
    2.6467    0.4293   -1.8573 O   0  0  0  0  0  0  0  0  0  0  0  0
   -3.1369    5.9292   -2.7992 O   0  0  0  0  0  0  0  0  0  0  0  0
   -3.4577    4.5187   -5.3802 O   0  0  0  0  0  0  0  0  0  0  0  0
   -1.8173    2.7118   -4.7486 O   0  0  0  0  0  0  0  0  0  0  0  0
   -1.4267    2.3479    1.0536 O   0  0  0  0  0  0  0  0  0  0  0  0
    1.7661    0.8230    0.6176 O   0  0  0  0  0  0  0  0  0  0  0  0
    2.2962    2.8764   -2.7694 O   0  0  0  0  0  0  0  0  0  0  0  0
    1.4588    0.9216   -4.1516 O   0  0  0  0  0  0  0  0  0  0  0  0
   -0.6000    6.3759   -2.3205 O   0  0  0  0  0  0  0  0  0  0  0  0
   -1.4308    4.1166   -6.7622 O   0  0  0  0  0  0  0  0  0  0  0  0
    0.2665    1.5431   -2.0049 O   0  0  0  0  0  0  0  0  0  0  0  0
   -1.4417    3.9749   -2.2113 O   0  0  0  0  0  0  0  0  0  0  0  0
   -1.2117    5.1207   -4.4327 O   0  0  0  0  0  0  0  0  0  0  0  0
    1.7528    1.3603   -2.6231 P   0  0  0  0  0  0  0  0  0  0  0  0
   -1.7388    5.3960   -2.9255 P   0  0  1  0  0  0  0  0  0  0  0  0
   -2.0941    4.0352   -5.2750 S   0  0  0  0  0  0  0  0  0  0  0  0
    2.0720   -0.3463    5.6224 H   0  0  0  0  0  0  0  0  0  0  0  0
   -2.8087    0.1287    1.4637 H   0  0  0  0  0  0  0  0  0  0  0  0
    0.8479    2.8789   -0.5638 H   0  0  0  0  0  0  0  0  0  0  0  0
   -0.0037    0.0013    0.0010 H   0  0  0  0  0  0  0  0  0  0  0  0
   -2.0060    1.7611   -0.8327 H   0  0  0  0  0  0  0  0  0  0  0  0
    0.2955    2.1397    2.1996 H   0  0  0  0  0  0  0  0  0  0  0  0
   -0.9777    4.5880   -0.3081 H   0  0  0  0  0  0  0  0  0  0  0  0
   -2.6720    4.1010   -0.5730 H   0  0  0  0  0  0  0  0  0  0  0  0
   -2.6392   -2.8096    5.2767 H   0  0  0  0  0  0  0  0  0  0  0  0
   -1.4740   -3.1365    6.5315 H   0  0  0  0  0  0  0  0  0  0  0  0
    1.8486    0.1163    1.2803 H   0  0  0  0  0  0  0  0  0  0  0  0
    3.1540    3.0315   -3.2190 H   0  0  0  0  0  0  0  0  0  0  0  0
    2.2126    0.8304   -4.7726 H   0  0  0  0  0  0  0  0  0  0  0  0
   -0.5026    7.2776   -2.6942 H   0  0  0  0  0  0  0  0  0  0  0  0
   -0.4551    3.9788   -6.7970 H   0  0  0  0  0  0  0  0  0  0  0  0
  1 11  2  0  0  0  0
  1 12  1  0  0  0  0
  1 32  1  0  0  0  0
  2 13  2  0  0  0  0
  2 14  1  0  0  0  0
  2 33  1  0  0  0  0
  3  4  2  0  0  0  0
  3  5  1  0  0  0  0
  3 13  1  0  0  0  0
  4 11  1  0  0  0  0
  4 14  1  0  0  0  0
  5 12  2  0  0  0  0
  5 15  1  0  0  0  0
  6  7  1  1  0  0  0
  6 26  1  0  0  0  0
  6 34  1  0  0  0  0
  7  9  1  1  0  0  0
  7 21  1  0  0  0  0
  7 35  1  0  0  0  0
  8  6  1  6  0  0  0
  8 10  1  0  0  0  0
  8 20  1  0  0  0  0
  8 36  1  0  0  0  0
  9 14  1  0  0  0  0
  9 20  1  0  0  0  0
  9 37  1  1  0  0  0
 10 27  1  0  0  0  0
 10 38  1  0  0  0  0
 10 39  1  0  0  0  0
 15 40  1  0  0  0  0
 15 41  1  0  0  0  0
 16 29  2  0  0  0  0
 18 31  2  0  0  0  0
 19 31  2  0  0  0  0
 21 42  1  0  0  0  0
 22 29  1  0  0  0  0
 22 43  1  0  0  0  0
 23 29  1  0  0  0  0
 23 44  1  0  0  0  0
 24 30  1  0  0  0  0
 24 45  1  0  0  0  0
 25 31  1  0  0  0  0
 25 46  1  0  0  0  0
 26 29  1  0  0  0  0
 27 30  1  0  0  0  0
 28 30  1  0  0  0  0
 28 31  1  0  0  0  0
 30 17  2  1  0  0  0
M  END
$$$$
DrugBank_5213
 OpenBabel01151909533D

 50 53  0  0  0  0  0  0  0  0999 V2000
    1.2907   -1.1253   -1.2974 C   0  0  0  0  0  0  0  0  0  0  0  0
    0.4403   -0.9697   -0.2127 C   0  0  0  0  0  0  0  0  0  0  0  0
    1.5369  -11.8692   -1.5881 C   0  0  0  0  0  0  0  0  0  0  0  0
    2.8980  -12.1695   -1.6249 C   0  0  0  0  0  0  0  0  0  0  0  0
    1.8510   -2.3737   -1.5631 C   0  0  0  0  0  0  0  0  0  0  0  0
    0.1508   -2.0619    0.6053 C   0  0  0  0  0  0  0  0  0  0  0  0
    1.1115  -10.5673   -1.3082 C   0  0  0  0  0  0  0  0  0  0  0  0
    3.8363  -11.1703   -1.3827 C   0  0  0  0  0  0  0  0  0  0  0  0
    1.5693   -3.4868   -0.7474 C   0  0  0  0  0  0  0  0  0  0  0  0
    0.7089   -3.3288    0.3502 C   0  0  0  0  0  0  0  0  0  0  0  0
    2.0400   -9.5487   -1.0614 C   0  0  0  0  0  0  0  0  0  0  0  0
    3.3931   -9.8767   -1.1050 C   0  0  0  0  0  0  0  0  0  0  0  0
    2.1613   -4.8064   -1.0285 C   0  0  0  0  0  0  0  0  0  0  0  0
    1.8824   -5.8645   -0.2451 C   0  0  0  0  0  0  0  0  0  0  0  0
    2.4673   -7.1909   -0.5279 C   0  0  0  0  0  0  0  0  0  0  0  0
    0.9665   -5.7168    0.9345 C   0  0  0  0  0  0  0  0  0  0  0  0
   -2.8403   -5.1392    4.0472 C   0  0  0  0  0  0  0  0  0  0  0  0
   -4.3739   -3.8132    2.5805 C   0  0  0  0  0  0  0  0  0  0  0  0
   -1.9388   -4.1794    1.9072 C   0  0  0  0  0  0  0  0  0  0  0  0
   -0.4733   -4.2830    2.3229 C   0  0  0  0  0  0  0  0  0  0  0  0
   -2.9322   -3.9666    3.0669 C   0  0  0  0  0  0  0  0  0  0  0  0
    3.7747   -7.2465   -0.5113 N   0  0  0  0  0  0  0  0  0  0  0  0
    1.6110   -8.2481   -0.7818 N   0  0  0  0  0  0  0  0  0  0  0  0
    0.4215   -4.4563    1.1795 N   0  0  0  0  0  0  0  0  0  0  0  0
    0.7365   -6.7087    1.6302 O   0  0  0  0  0  0  0  0  0  0  0  0
    5.3319   -8.4810   -2.0405 O   0  0  0  0  0  0  0  0  0  0  0  0
    5.2765   -9.0273    0.4165 O   0  0  0  0  0  0  0  0  0  0  0  0
    2.9915   -4.8285   -2.1304 O   0  0  0  0  0  0  0  0  0  0  0  0
    4.5932   -8.6232   -0.7989 S   0  0  0  0  0  0  0  0  0  0  0  0
    1.5208   -0.2784   -1.9371 H   0  0  0  0  0  0  0  0  0  0  0  0
    0.0003    0.0001   -0.0000 H   0  0  0  0  0  0  0  0  0  0  0  0
    0.8044  -12.6487   -1.7769 H   0  0  0  0  0  0  0  0  0  0  0  0
    3.2255  -13.1819   -1.8423 H   0  0  0  0  0  0  0  0  0  0  0  0
    2.5129   -2.4571   -2.4221 H   0  0  0  0  0  0  0  0  0  0  0  0
   -0.5202   -1.8899    1.4421 H   0  0  0  0  0  0  0  0  0  0  0  0
    0.0449  -10.3555   -1.2846 H   0  0  0  0  0  0  0  0  0  0  0  0
    4.8953  -11.4084   -1.4126 H   0  0  0  0  0  0  0  0  0  0  0  0
   -3.1052   -6.0850    3.5623 H   0  0  0  0  0  0  0  0  0  0  0  0
   -1.8248   -5.2346    4.4458 H   0  0  0  0  0  0  0  0  0  0  0  0
   -3.5176   -4.9919    4.8952 H   0  0  0  0  0  0  0  0  0  0  0  0
   -4.7035   -4.6966    2.0258 H   0  0  0  0  0  0  0  0  0  0  0  0
   -4.4669   -2.9553    1.9057 H   0  0  0  0  0  0  0  0  0  0  0  0
   -5.0617   -3.6590    3.4188 H   0  0  0  0  0  0  0  0  0  0  0  0
   -2.2148   -5.0970    1.3708 H   0  0  0  0  0  0  0  0  0  0  0  0
   -2.0375   -3.3558    1.1885 H   0  0  0  0  0  0  0  0  0  0  0  0
   -0.1678   -3.3616    2.8292 H   0  0  0  0  0  0  0  0  0  0  0  0
   -0.3014   -5.1116    3.0154 H   0  0  0  0  0  0  0  0  0  0  0  0
   -2.6560   -3.0566    3.6137 H   0  0  0  0  0  0  0  0  0  0  0  0
    0.6074   -8.0967   -0.7691 H   0  0  0  0  0  0  0  0  0  0  0  0
    3.3428   -5.7157   -2.2570 H   0  0  0  0  0  0  0  0  0  0  0  0
  1  2  2  0  0  0  0
  1  5  1  0  0  0  0
  1 30  1  0  0  0  0
  2  6  1  0  0  0  0
  2 31  1  0  0  0  0
  3  4  2  0  0  0  0
  3  7  1  0  0  0  0
  3 32  1  0  0  0  0
  4  8  1  0  0  0  0
  4 33  1  0  0  0  0
  5  9  2  0  0  0  0
  5 34  1  0  0  0  0
  6 10  2  0  0  0  0
  6 35  1  0  0  0  0
  7 11  2  0  0  0  0
  7 36  1  0  0  0  0
  8 12  2  0  0  0  0
  8 37  1  0  0  0  0
  9 10  1  0  0  0  0
  9 13  1  0  0  0  0
 10 24  1  0  0  0  0
 11 12  1  0  0  0  0
 11 23  1  0  0  0  0
 12 29  1  0  0  0  0
 13 14  2  0  0  0  0
 13 28  1  0  0  0  0
 14 15  1  0  0  0  0
 14 16  1  0  0  0  0
 15 22  2  0  0  0  0
 15 23  1  0  0  0  0
 16 24  1  0  0  0  0
 16 25  2  0  0  0  0
 17 21  1  0  0  0  0
 17 38  1  0  0  0  0
 17 39  1  0  0  0  0
 17 40  1  0  0  0  0
 18 21  1  0  0  0  0
 18 41  1  0  0  0  0
 18 42  1  0  0  0  0
 18 43  1  0  0  0  0
 19 20  1  0  0  0  0
 19 21  1  0  0  0  0
 19 44  1  0  0  0  0
 19 45  1  0  0  0  0
 20 24  1  0  0  0  0
 20 46  1  0  0  0  0
 20 47  1  0  0  0  0
 21 48  1  0  0  0  0
 22 29  1  0  0  0  0
 23 49  1  0  0  0  0
 26 29  2  0  0  0  0
 27 29  2  0  0  0  0
 28 50  1  0  0  0  0
M  END
$$$$
DrugBank_5215
 OpenBabel01151909533D

 52 54  0  0  1  0  0  0  0  0999 V2000
   -6.8858   -5.9112    1.6268 C   0  0  0  0  0  0  0  0  0  0  0  0
   -7.9838   -5.0361    1.8695 C   0  0  0  0  0  0  0  0  0  0  0  0
   -5.9352   -5.8366    2.6210 C   0  0  0  0  0  0  0  0  0  0  0  0
   -7.8306   -4.3262    3.0402 C   0  0  0  0  0  0  0  0  0  0  0  0
   -0.2395   -4.0721   -0.0525 C   0  0  0  0  0  0  0  0  0  0  0  0
    1.2494   -4.6185   -2.8018 C   0  0  0  0  0  0  0  0  0  0  0  0
    1.0666   -5.2460    1.5708 C   0  0  0  0  0  0  0  0  0  0  0  0
    1.8433   -5.1450    0.2702 C   0  0  0  0  0  0  0  0  0  0  0  0
    0.5864   -4.9927   -5.1559 C   0  0  0  0  0  0  0  0  0  0  0  0
    1.0489   -2.6848   -4.4400 C   0  0  0  0  0  0  0  0  0  0  0  0
   -0.6317   -4.4656   -5.9008 C   0  0  0  0  0  0  0  0  0  0  0  0
   -0.1865   -2.2528   -5.2199 C   0  0  0  0  0  0  0  0  0  0  0  0
   -0.3733   -4.9404    1.1736 C   0  0  2  0  0  0  0  0  0  0  0  0
    3.0891   -3.4036   -1.6577 C   0  0  0  0  0  0  0  0  0  0  0  0
   -4.6349   -6.5947    2.7365 C   0  0  0  0  0  0  0  0  0  0  0  0
   -3.5533   -6.0680    1.8010 C   0  0  0  0  0  0  0  0  0  0  0  0
    1.5956   -3.6221   -1.7245 C   0  0  2  0  0  0  0  0  0  0  0  0
    1.0703   -4.2075   -0.5101 N   0  0  0  0  0  0  0  0  0  0  0  0
    0.9385   -4.0958   -4.0552 N   0  0  0  0  0  0  0  0  0  0  0  0
   -1.0856   -6.1605    0.7564 N   0  0  0  0  0  0  0  0  0  0  0  0
   -1.1474   -3.4217   -0.5500 O   0  0  0  0  0  0  0  0  0  0  0  0
    1.2517   -5.8231   -2.5357 O   0  0  0  0  0  0  0  0  0  0  0  0
   -1.4902   -6.8192    3.2256 O   0  0  0  0  0  0  0  0  0  0  0  0
   -2.3157   -8.3255    1.3801 O   0  0  0  0  0  0  0  0  0  0  0  0
   -0.4022   -3.1224   -6.3344 O   0  0  0  0  0  0  0  0  0  0  0  0
   -6.3678   -4.7153    3.8407 S   0  0  0  0  0  0  0  0  0  0  0  0
   -2.0410   -6.9984    1.8965 S   0  0  0  0  0  0  0  0  0  0  0  0
   -8.9006   -3.1703    3.7155 Cl  0  0  0  0  0  0  0  0  0  0  0  0
   -6.8016   -6.5610    0.7650 H   0  0  0  0  0  0  0  0  0  0  0  0
   -8.8401   -4.9372    1.2143 H   0  0  0  0  0  0  0  0  0  0  0  0
    1.2009   -6.2143    2.0624 H   0  0  0  0  0  0  0  0  0  0  0  0
    1.4201   -4.4678    2.2594 H   0  0  0  0  0  0  0  0  0  0  0  0
    2.8584   -4.7711    0.4249 H   0  0  0  0  0  0  0  0  0  0  0  0
    1.8708   -6.1001   -0.2623 H   0  0  0  0  0  0  0  0  0  0  0  0
    0.4035   -6.0091   -4.7946 H   0  0  0  0  0  0  0  0  0  0  0  0
    1.4554   -5.0207   -5.8238 H   0  0  0  0  0  0  0  0  0  0  0  0
    1.9405   -2.6078   -5.0734 H   0  0  0  0  0  0  0  0  0  0  0  0
    1.1909   -2.0312   -3.5778 H   0  0  0  0  0  0  0  0  0  0  0  0
   -0.8244   -5.0773   -6.7875 H   0  0  0  0  0  0  0  0  0  0  0  0
   -1.5291   -4.4939   -5.2713 H   0  0  0  0  0  0  0  0  0  0  0  0
   -1.0798   -2.2528   -4.5839 H   0  0  0  0  0  0  0  0  0  0  0  0
   -0.0508   -1.2380   -5.6067 H   0  0  0  0  0  0  0  0  0  0  0  0
   -0.9229   -4.4264    1.9701 H   0  0  0  0  0  0  0  0  0  0  0  0
    3.6289   -4.3358   -1.4548 H   0  0  0  0  0  0  0  0  0  0  0  0
    3.4585   -3.0079   -2.6097 H   0  0  0  0  0  0  0  0  0  0  0  0
    3.3477   -2.6930   -0.8657 H   0  0  0  0  0  0  0  0  0  0  0  0
   -4.8242   -7.6498    2.4989 H   0  0  0  0  0  0  0  0  0  0  0  0
   -4.2750   -6.5764    3.7730 H   0  0  0  0  0  0  0  0  0  0  0  0
   -3.8890   -6.1479    0.7620 H   0  0  0  0  0  0  0  0  0  0  0  0
   -3.3009   -5.0224    2.0018 H   0  0  0  0  0  0  0  0  0  0  0  0
    1.0591   -2.6962   -1.9261 H   0  0  0  0  0  0  0  0  0  0  0  0
   -1.4355   -6.1296   -0.2101 H   0  0  0  0  0  0  0  0  0  0  0  0
  1  2  1  0  0  0  0
  1  3  2  0  0  0  0
  1 29  1  0  0  0  0
  2  4  2  0  0  0  0
  2 30  1  0  0  0  0
  3 15  1  0  0  0  0
  3 26  1  0  0  0  0
  4 26  1  0  0  0  0
  4 28  1  0  0  0  0
  5 13  1  0  0  0  0
  5 18  1  0  0  0  0
  5 21  2  0  0  0  0
  6 17  1  0  0  0  0
  6 19  1  0  0  0  0
  6 22  2  0  0  0  0
  7  8  1  0  0  0  0
  7 13  1  0  0  0  0
  7 31  1  0  0  0  0
  7 32  1  0  0  0  0
  8 18  1  0  0  0  0
  8 33  1  0  0  0  0
  8 34  1  0  0  0  0
  9 11  1  0  0  0  0
  9 19  1  0  0  0  0
  9 35  1  0  0  0  0
  9 36  1  0  0  0  0
 10 12  1  0  0  0  0
 10 19  1  0  0  0  0
 10 37  1  0  0  0  0
 10 38  1  0  0  0  0
 11 25  1  0  0  0  0
 11 39  1  0  0  0  0
 11 40  1  0  0  0  0
 12 25  1  0  0  0  0
 12 41  1  0  0  0  0
 12 42  1  0  0  0  0
 13 20  1  0  0  0  0
 13 43  1  1  0  0  0
 14 17  1  0  0  0  0
 14 44  1  0  0  0  0
 14 45  1  0  0  0  0
 14 46  1  0  0  0  0
 15 16  1  0  0  0  0
 15 47  1  0  0  0  0
 15 48  1  0  0  0  0
 16 27  1  0  0  0  0
 16 49  1  0  0  0  0
 16 50  1  0  0  0  0
 17 18  1  0  0  0  0
 17 51  1  6  0  0  0
 20 27  1  0  0  0  0
 20 52  1  0  0  0  0
 23 27  2  0  0  0  0
 24 27  2  0  0  0  0
M  END
$$$$
DrugBank_2605
 OpenBabel01151909533D

 37 39  0  0  1  0  0  0  0  0999 V2000
    1.1183   -0.5184    5.1349 C   0  0  0  0  0  0  0  0  0  0  0  0
   -2.1322   -0.1230    2.2690 C   0  0  0  0  0  0  0  0  0  0  0  0
   -1.2345   -0.9935    3.9951 C   0  0  0  0  0  0  0  0  0  0  0  0
   -0.3236   -0.0630    3.5209 C   0  0  0  0  0  0  0  0  0  0  0  0
   -0.8714   -1.7051    5.1342 C   0  0  0  0  0  0  0  0  0  0  0  0
    0.1385    2.0525   -0.6912 C   0  0  2  0  0  0  0  0  0  0  0  0
    0.3852    0.9698    0.3367 C   0  0  2  0  0  0  0  0  0  0  0  0
   -1.2921    2.4556   -0.3738 C   0  0  2  0  0  0  0  0  0  0  0  0
   -0.3571    1.5191    1.5483 C   0  0  2  0  0  0  0  0  0  0  0  0
   -1.6307    3.8699   -0.8096 C   0  0  0  0  0  0  0  0  0  0  0  0
    0.8782    0.2328    4.0381 N   0  0  0  0  0  0  0  0  0  0  0  0
    0.3297   -1.4580    5.7103 N   0  0  0  0  0  0  0  0  0  0  0  0
   -2.3567   -1.0206    3.2058 N   0  0  0  0  0  0  0  0  0  0  0  0
   -0.9134    0.4840    2.4171 N   0  0  0  0  0  0  0  0  0  0  0  0
   -1.7341   -2.6687    5.6840 N   0  0  0  0  0  0  0  0  0  0  0  0
   -5.2481    5.4849   -0.2689 N   0  0  0  0  0  0  0  0  0  0  0  0
   -2.9505    6.6107   -0.0452 O   0  0  0  0  0  0  0  0  0  0  0  0
   -3.6784    5.7143   -2.2787 O   0  0  0  0  0  0  0  0  0  0  0  0
   -1.4267    2.3479    1.0536 O   0  0  0  0  0  0  0  0  0  0  0  0
    0.2665    1.5431   -2.0049 O   0  0  0  0  0  0  0  0  0  0  0  0
    1.7661    0.8230    0.6176 O   0  0  0  0  0  0  0  0  0  0  0  0
   -2.9832    4.1397   -0.4788 O   0  0  0  0  0  0  0  0  0  0  0  0
   -3.6327    5.5997   -0.8323 S   0  0  0  0  0  0  0  0  0  0  0  0
    2.0720   -0.3463    5.6224 H   0  0  0  0  0  0  0  0  0  0  0  0
   -2.8087    0.1287    1.4637 H   0  0  0  0  0  0  0  0  0  0  0  0
    0.8479    2.8789   -0.5638 H   0  0  0  0  0  0  0  0  0  0  0  0
   -0.0037    0.0013    0.0010 H   0  0  0  0  0  0  0  0  0  0  0  0
   -2.0060    1.7611   -0.8327 H   0  0  0  0  0  0  0  0  0  0  0  0
    0.2955    2.1397    2.1996 H   0  0  0  0  0  0  0  0  0  0  0  0
   -1.5011    3.9754   -1.8893 H   0  0  0  0  0  0  0  0  0  0  0  0
   -0.9888    4.5894   -0.2959 H   0  0  0  0  0  0  0  0  0  0  0  0
   -2.6392   -2.8096    5.2767 H   0  0  0  0  0  0  0  0  0  0  0  0
   -1.4740   -3.1365    6.5315 H   0  0  0  0  0  0  0  0  0  0  0  0
   -5.3813    5.0940    0.6726 H   0  0  0  0  0  0  0  0  0  0  0  0
   -5.8592    6.2914   -0.4502 H   0  0  0  0  0  0  0  0  0  0  0  0
    0.0978    2.2810   -2.6159 H   0  0  0  0  0  0  0  0  0  0  0  0
    1.8486    0.1163    1.2803 H   0  0  0  0  0  0  0  0  0  0  0  0
  1 11  2  0  0  0  0
  1 12  1  0  0  0  0
  1 24  1  0  0  0  0
  2 13  2  0  0  0  0
  2 14  1  0  0  0  0
  2 25  1  0  0  0  0
  3  4  2  0  0  0  0
  3  5  1  0  0  0  0
  3 13  1  0  0  0  0
  4 11  1  0  0  0  0
  4 14  1  0  0  0  0
  5 12  2  0  0  0  0
  5 15  1  0  0  0  0
  6  7  1  1  0  0  0
  6 20  1  0  0  0  0
  6 26  1  0  0  0  0
  7  9  1  1  0  0  0
  7 21  1  0  0  0  0
  7 27  1  0  0  0  0
  8  6  1  6  0  0  0
  8 10  1  0  0  0  0
  8 19  1  0  0  0  0
  8 28  1  0  0  0  0
  9 14  1  0  0  0  0
  9 19  1  0  0  0  0
  9 29  1  1  0  0  0
 10 22  1  0  0  0  0
 10 30  1  0  0  0  0
 10 31  1  0  0  0  0
 15 32  1  0  0  0  0
 15 33  1  0  0  0  0
 16 23  1  0  0  0  0
 16 34  1  0  0  0  0
 16 35  1  0  0  0  0
 17 23  2  0  0  0  0
 18 23  2  0  0  0  0
 20 36  1  0  0  0  0
 21 37  1  0  0  0  0
 22 23  1  0  0  0  0
M  END
$$$$
DrugBank_2607
 OpenBabel01151909533D

 29 30  0  0  0  0  0  0  0  0999 V2000
    0.8802    2.9947    4.3198 C   0  0  0  0  0  0  0  0  0  0  0  0
    1.6904    3.7620    5.1566 C   0  0  0  0  0  0  0  0  0  0  0  0
    2.1427    1.0204    4.9075 C   0  0  0  0  0  0  0  0  0  0  0  0
    1.1063    1.6238    4.1952 C   0  0  0  0  0  0  0  0  0  0  0  0
    2.7268    3.1585    5.8689 C   0  0  0  0  0  0  0  0  0  0  0  0
    2.9530    1.7877    5.7444 C   0  0  0  0  0  0  0  0  0  0  0  0
    0.8641   -0.3825    2.6793 C   0  0  0  0  0  0  0  0  0  0  0  0
    0.0892   -1.1216    1.8868 C   0  0  0  0  0  0  0  0  0  0  0  0
    0.2412    0.8057    3.3048 C   0  0  0  0  0  0  0  0  0  0  0  0
   -1.3191   -0.7389    1.6635 C   0  0  0  0  0  0  0  0  0  0  0  0
    4.1241   -0.2187    6.2529 C   0  0  0  0  0  0  0  0  0  0  0  0
    2.9147    5.0624    7.2820 C   0  0  0  0  0  0  0  0  0  0  0  0
   -0.9863    1.1751    3.1121 N   0  0  0  0  0  0  0  0  0  0  0  0
   -1.7462    0.4026    2.2991 N   0  0  0  0  0  0  0  0  0  0  0  0
   -2.0353   -1.4257    0.9384 O   0  0  0  0  0  0  0  0  0  0  0  0
    3.9603    1.1862    6.4365 O   0  0  0  0  0  0  0  0  0  0  0  0
    3.5111    3.9188    6.6830 O   0  0  0  0  0  0  0  0  0  0  0  0
    3.5360    5.2714    8.4715 F   0  0  0  0  0  0  0  0  0  0  0  0
    3.1719    6.1512    6.5164 F   0  0  0  0  0  0  0  0  0  0  0  0
    0.0754    3.4755    3.7696 H   0  0  0  0  0  0  0  0  0  0  0  0
    1.5093    4.8293    5.2491 H   0  0  0  0  0  0  0  0  0  0  0  0
    2.3202   -0.0486    4.8145 H   0  0  0  0  0  0  0  0  0  0  0  0
    1.9008   -0.6270    2.8692 H   0  0  0  0  0  0  0  0  0  0  0  0
    0.4666   -2.0091    1.3930 H   0  0  0  0  0  0  0  0  0  0  0  0
    4.9607   -0.5713    6.8611 H   0  0  0  0  0  0  0  0  0  0  0  0
    4.3127   -0.4295    5.1973 H   0  0  0  0  0  0  0  0  0  0  0  0
    3.2091   -0.7271    6.5661 H   0  0  0  0  0  0  0  0  0  0  0  0
    1.8406    4.9492    7.4640 H   0  0  0  0  0  0  0  0  0  0  0  0
   -2.7078    0.6896    2.1471 H   0  0  0  0  0  0  0  0  0  0  0  0
  1  2  2  0  0  0  0
  1  4  1  0  0  0  0
  1 20  1  0  0  0  0
  2  5  1  0  0  0  0
  2 21  1  0  0  0  0
  3  4  2  0  0  0  0
  3  6  1  0  0  0  0
  3 22  1  0  0  0  0
  4  9  1  0  0  0  0
  5  6  2  0  0  0  0
  5 17  1  0  0  0  0
  6 16  1  0  0  0  0
  7  8  2  0  0  0  0
  7  9  1  0  0  0  0
  7 23  1  0  0  0  0
  8 10  1  0  0  0  0
  8 24  1  0  0  0  0
  9 13  2  0  0  0  0
 10 14  1  0  0  0  0
 10 15  2  0  0  0  0
 11 16  1  0  0  0  0
 11 25  1  0  0  0  0
 11 26  1  0  0  0  0
 11 27  1  0  0  0  0
 12 17  1  0  0  0  0
 12 18  1  0  0  0  0
 12 19  1  0  0  0  0
 12 28  1  0  0  0  0
 13 14  1  0  0  0  0
 14 29  1  0  0  0  0
M  END
$$$$
DrugBank_5237
 OpenBabel01151909533D

 66 66  0  0  1  0  0  0  0  0999 V2000
    9.8752   -0.5605   -6.6416 C   0  0  0  0  0  0  0  0  0  0  0  0
   10.4239   -0.8151   -7.8811 C   0  0  0  0  0  0  0  0  0  0  0  0
    8.4251   -2.0479   -7.3450 C   0  0  0  0  0  0  0  0  0  0  0  0
    7.2550   -2.9427   -7.3473 C   0  0  0  0  0  0  0  0  0  0  0  0
    0.8516   -1.1136   -6.8037 C   0  0  0  0  0  0  0  0  0  0  0  0
    4.1783   -2.0908   -6.9717 C   0  0  0  0  0  0  0  0  0  0  0  0
   -0.7209    2.9820   -6.5532 C   0  0  0  0  0  0  0  0  0  0  0  0
   -2.9785    2.1099   -5.9186 C   0  0  0  0  0  0  0  0  0  0  0  0
    1.4616   -3.9767   -9.0800 C   0  0  0  0  0  0  0  0  0  0  0  0
    3.5229   -2.7568   -9.8218 C   0  0  0  0  0  0  0  0  0  0  0  0
    0.1710    0.1754   -7.2330 C   0  0  0  0  0  0  0  0  0  0  0  0
   -1.0561    0.4985   -6.3799 C   0  0  0  0  0  0  0  0  0  0  0  0
    5.8451   -4.1900   -3.9402 C   0  0  0  0  0  0  0  0  0  0  0  0
    6.7612   -4.0964   -5.1673 C   0  0  0  0  0  0  0  0  0  0  0  0
    6.2201   -5.3471   -3.0168 C   0  0  0  0  0  0  0  0  0  0  0  0
    6.3450   -2.9689   -6.1160 C   0  0  2  0  0  0  0  0  0  0  0  0
    2.7899   -2.5584   -7.4031 C   0  0  2  0  0  0  0  0  0  0  0  0
   -1.7202    1.8386   -6.7443 C   0  0  0  0  0  0  0  0  0  0  0  0
    2.8414   -3.4682   -8.6488 C   0  0  0  0  0  0  0  0  0  0  0  0
    5.6851   -6.4732   -0.9272 C   0  0  0  0  0  0  0  0  0  0  0  0
    8.7288   -1.2662   -6.3326 N   0  0  0  0  0  0  0  0  0  0  0  0
    5.0835   -7.7317   -1.3561 N   0  0  0  0  0  0  0  0  0  0  0  0
    5.1761   -6.1476    0.4022 N   0  0  0  0  0  0  0  0  0  0  0  0
    4.9957   -3.1488   -6.6003 N   0  0  0  0  0  0  0  0  0  0  0  0
    1.9616   -1.3891   -7.5891 N   0  0  0  0  0  0  0  0  0  0  0  0
    5.3657   -5.3774   -1.8535 N   0  0  0  0  0  0  0  0  0  0  0  0
    6.9803   -3.6540   -8.3177 O   0  0  0  0  0  0  0  0  0  0  0  0
    0.4472   -1.8118   -5.8780 O   0  0  0  0  0  0  0  0  0  0  0  0
    4.5018   -0.9054   -6.9319 O   0  0  0  0  0  0  0  0  0  0  0  0
    9.4752   -1.9853   -8.7008 S   0  0  0  0  0  0  0  0  0  0  0  0
   10.2742    0.1386   -5.9188 H   0  0  0  0  0  0  0  0  0  0  0  0
   11.3078   -0.3838   -8.3283 H   0  0  0  0  0  0  0  0  0  0  0  0
   -0.4033    3.0513   -5.5072 H   0  0  0  0  0  0  0  0  0  0  0  0
    0.1725    2.8364   -7.1702 H   0  0  0  0  0  0  0  0  0  0  0  0
   -1.1706    3.9420   -6.8281 H   0  0  0  0  0  0  0  0  0  0  0  0
   -2.7534    2.1448   -4.8485 H   0  0  0  0  0  0  0  0  0  0  0  0
   -3.7188    1.3161   -6.0672 H   0  0  0  0  0  0  0  0  0  0  0  0
   -3.4419    3.0609   -6.2019 H   0  0  0  0  0  0  0  0  0  0  0  0
    0.7953   -3.1475   -9.3367 H   0  0  0  0  0  0  0  0  0  0  0  0
    1.5272   -4.6438   -9.9456 H   0  0  0  0  0  0  0  0  0  0  0  0
    0.9883   -4.5364   -8.2658 H   0  0  0  0  0  0  0  0  0  0  0  0
    2.9623   -1.8624  -10.1131 H   0  0  0  0  0  0  0  0  0  0  0  0
    4.5343   -2.4395   -9.5459 H   0  0  0  0  0  0  0  0  0  0  0  0
    3.6044   -3.4088  -10.6977 H   0  0  0  0  0  0  0  0  0  0  0  0
    0.9020    0.9892   -7.1588 H   0  0  0  0  0  0  0  0  0  0  0  0
   -0.1112    0.0653   -8.2858 H   0  0  0  0  0  0  0  0  0  0  0  0
   -1.7864   -0.3166   -6.4675 H   0  0  0  0  0  0  0  0  0  0  0  0
   -0.7553    0.5281   -5.3242 H   0  0  0  0  0  0  0  0  0  0  0  0
    4.8031   -4.2966   -4.2664 H   0  0  0  0  0  0  0  0  0  0  0  0
    5.9091   -3.2580   -3.3664 H   0  0  0  0  0  0  0  0  0  0  0  0
    7.7973   -3.9445   -4.8372 H   0  0  0  0  0  0  0  0  0  0  0  0
    6.7460   -5.0513   -5.7062 H   0  0  0  0  0  0  0  0  0  0  0  0
    6.1511   -6.3017   -3.5488 H   0  0  0  0  0  0  0  0  0  0  0  0
    7.2568   -5.2285   -2.6851 H   0  0  0  0  0  0  0  0  0  0  0  0
    6.3463   -1.9954   -5.6176 H   0  0  0  0  0  0  0  0  0  0  0  0
    2.3486   -3.1087   -6.5624 H   0  0  0  0  0  0  0  0  0  0  0  0
   -2.0038    1.8144   -7.8040 H   0  0  0  0  0  0  0  0  0  0  0  0
    3.4502   -4.3497   -8.4087 H   0  0  0  0  0  0  0  0  0  0  0  0
    6.7711   -6.5958   -0.8454 H   0  0  0  0  0  0  0  0  0  0  0  0
    5.3176   -8.4591   -0.6818 H   0  0  0  0  0  0  0  0  0  0  0  0
    5.4953   -8.0244   -2.2406 H   0  0  0  0  0  0  0  0  0  0  0  0
    5.4396   -6.8858    1.0533 H   0  0  0  0  0  0  0  0  0  0  0  0
    5.6349   -5.2999    0.7325 H   0  0  0  0  0  0  0  0  0  0  0  0
    4.6337   -4.0967   -6.6427 H   0  0  0  0  0  0  0  0  0  0  0  0
    2.2011   -0.7587   -8.3488 H   0  0  0  0  0  0  0  0  0  0  0  0
    5.4675   -4.4960   -1.3403 H   0  0  0  0  0  0  0  0  0  0  0  0
  1  2  2  0  0  0  0
  1 21  1  0  0  0  0
  1 31  1  0  0  0  0
  2 30  1  0  0  0  0
  2 32  1  0  0  0  0
  3  4  1  0  0  0  0
  3 21  2  0  0  0  0
  3 30  1  0  0  0  0
  4 16  1  0  0  0  0
  4 27  2  0  0  0  0
  5 11  1  0  0  0  0
  5 25  1  0  0  0  0
  5 28  2  0  0  0  0
  6 17  1  0  0  0  0
  6 24  1  0  0  0  0
  6 29  2  0  0  0  0
  7 18  1  0  0  0  0
  7 33  1  0  0  0  0
  7 34  1  0  0  0  0
  7 35  1  0  0  0  0
  8 18  1  0  0  0  0
  8 36  1  0  0  0  0
  8 37  1  0  0  0  0
  8 38  1  0  0  0  0
  9 19  1  0  0  0  0
  9 39  1  0  0  0  0
  9 40  1  0  0  0  0
  9 41  1  0  0  0  0
 10 19  1  0  0  0  0
 10 42  1  0  0  0  0
 10 43  1  0  0  0  0
 10 44  1  0  0  0  0
 11 12  1  0  0  0  0
 11 45  1  0  0  0  0
 11 46  1  0  0  0  0
 12 18  1  0  0  0  0
 12 47  1  0  0  0  0
 12 48  1  0  0  0  0
 13 14  1  0  0  0  0
 13 15  1  0  0  0  0
 13 49  1  0  0  0  0
 13 50  1  0  0  0  0
 14 16  1  0  0  0  0
 14 51  1  0  0  0  0
 14 52  1  0  0  0  0
 15 26  1  0  0  0  0
 15 53  1  0  0  0  0
 15 54  1  0  0  0  0
 16 24  1  0  0  0  0
 16 55  1  1  0  0  0
 17 19  1  0  0  0  0
 17 25  1  0  0  0  0
 17 56  1  1  0  0  0
 18 57  1  0  0  0  0
 19 58  1  0  0  0  0
 20 22  1  0  0  0  0
 20 23  1  0  0  0  0
 20 26  1  0  0  0  0
 20 59  1  0  0  0  0
 22 60  1  0  0  0  0
 22 61  1  0  0  0  0
 23 62  1  0  0  0  0
 23 63  1  0  0  0  0
 24 64  1  0  0  0  0
 25 65  1  0  0  0  0
 26 66  1  0  0  0  0
M  END
$$$$
DrugBank_5245
 OpenBabel01151909533D

 53 57  0  0  0  0  0  0  0  0999 V2000
  -11.1415   -9.9298   -0.3976 C   0  0  0  0  0  0  0  0  0  0  0  0
  -11.6539  -11.2045   -0.6390 C   0  0  0  0  0  0  0  0  0  0  0  0
   -7.7767   -9.7420   -3.5764 C   0  0  0  0  0  0  0  0  0  0  0  0
   -9.7840   -9.6753   -0.5929 C   0  0  0  0  0  0  0  0  0  0  0  0
   -7.1803   -9.2909   -4.7545 C   0  0  0  0  0  0  0  0  0  0  0  0
   -4.0125   -7.6338   -8.3615 C   0  0  0  0  0  0  0  0  0  0  0  0
  -10.8088  -12.2247   -1.0756 C   0  0  0  0  0  0  0  0  0  0  0  0
   -4.1087   -9.0070   -8.1364 C   0  0  0  0  0  0  0  0  0  0  0  0
   -5.0268   -9.2627   -3.6588 C   0  0  0  0  0  0  0  0  0  0  0  0
   -5.0963   -7.2109   -6.2440 C   0  0  0  0  0  0  0  0  0  0  0  0
   -4.8933   -9.9456   -1.3030 C   0  0  0  0  0  0  0  0  0  0  0  0
   -6.9990   -9.9576   -2.4263 C   0  0  0  0  0  0  0  0  0  0  0  0
   -5.6176   -9.7168   -2.4677 C   0  0  0  0  0  0  0  0  0  0  0  0
   -5.8080   -9.0518   -4.7956 C   0  0  0  0  0  0  0  0  0  0  0  0
   -8.9389  -10.6955   -1.0294 C   0  0  0  0  0  0  0  0  0  0  0  0
   -5.1925   -8.5841   -6.0190 C   0  0  0  0  0  0  0  0  0  0  0  0
   -4.5063   -6.7357   -7.4153 C   0  0  0  0  0  0  0  0  0  0  0  0
   -9.4513  -11.9702   -1.2708 C   0  0  0  0  0  0  0  0  0  0  0  0
   -4.6986   -9.4822   -6.9652 C   0  0  0  0  0  0  0  0  0  0  0  0
   -7.5345  -10.4058   -1.2238 C   0  0  0  0  0  0  0  0  0  0  0  0
   -4.4038   -5.3042   -7.6507 C   0  0  0  0  0  0  0  0  0  0  0  0
   -4.5633   -2.1481   -6.3365 C   0  0  0  0  0  0  0  0  0  0  0  0
   -6.0519   -2.1752   -6.1550 C   0  0  0  0  0  0  0  0  0  0  0  0
   -5.4068   -3.0529   -7.1924 C   0  0  0  0  0  0  0  0  0  0  0  0
   -8.5763  -13.0885   -1.7392 C   0  0  0  0  0  0  0  0  0  0  0  0
   -4.7839  -10.9605   -6.7587 C   0  0  0  0  0  0  0  0  0  0  0  0
   -5.4545  -10.3820   -0.1546 N   0  0  0  0  0  0  0  0  0  0  0  0
   -6.7930  -10.6152   -0.1145 N   0  0  0  0  0  0  0  0  0  0  0  0
   -5.3614   -4.4890   -7.0363 N   0  0  0  0  0  0  0  0  0  0  0  0
   -3.5101   -4.8477   -8.3855 O   0  0  0  0  0  0  0  0  0  0  0  0
  -11.7998   -9.1354   -0.0581 H   0  0  0  0  0  0  0  0  0  0  0  0
  -12.7110  -11.4022   -0.4872 H   0  0  0  0  0  0  0  0  0  0  0  0
   -8.8496   -9.9177   -3.5808 H   0  0  0  0  0  0  0  0  0  0  0  0
   -9.4011   -8.6758   -0.4002 H   0  0  0  0  0  0  0  0  0  0  0  0
   -7.8007   -9.1297   -5.6330 H   0  0  0  0  0  0  0  0  0  0  0  0
   -3.5496   -7.2743   -9.2771 H   0  0  0  0  0  0  0  0  0  0  0  0
  -11.2184  -13.2142   -1.2609 H   0  0  0  0  0  0  0  0  0  0  0  0
   -3.7196   -9.6980   -8.8795 H   0  0  0  0  0  0  0  0  0  0  0  0
   -3.9545   -9.0767   -3.6933 H   0  0  0  0  0  0  0  0  0  0  0  0
   -5.4801   -6.5052   -5.5096 H   0  0  0  0  0  0  0  0  0  0  0  0
   -3.8215   -9.7829   -1.2526 H   0  0  0  0  0  0  0  0  0  0  0  0
   -4.1276   -1.2664   -6.7903 H   0  0  0  0  0  0  0  0  0  0  0  0
   -3.9522   -2.6066   -5.5688 H   0  0  0  0  0  0  0  0  0  0  0  0
   -6.4434   -2.6514   -5.2645 H   0  0  0  0  0  0  0  0  0  0  0  0
   -6.6140   -1.3105   -6.4859 H   0  0  0  0  0  0  0  0  0  0  0  0
   -5.5388   -2.7588   -8.2280 H   0  0  0  0  0  0  0  0  0  0  0  0
   -8.5443  -13.1105   -2.8341 H   0  0  0  0  0  0  0  0  0  0  0  0
   -7.5538  -12.9749   -1.3603 H   0  0  0  0  0  0  0  0  0  0  0  0
   -8.9460  -14.0561   -1.3793 H   0  0  0  0  0  0  0  0  0  0  0  0
   -3.8893  -11.3222   -6.2399 H   0  0  0  0  0  0  0  0  0  0  0  0
   -5.6659  -11.2258   -6.1638 H   0  0  0  0  0  0  0  0  0  0  0  0
   -4.8722  -11.4883   -7.7158 H   0  0  0  0  0  0  0  0  0  0  0  0
   -6.1067   -4.9185   -6.4979 H   0  0  0  0  0  0  0  0  0  0  0  0
  1  2  2  0  0  0  0
  1  4  1  0  0  0  0
  1 31  1  0  0  0  0
  2  7  1  0  0  0  0
  2 32  1  0  0  0  0
  3  5  2  0  0  0  0
  3 12  1  0  0  0  0
  3 33  1  0  0  0  0
  4 15  2  0  0  0  0
  4 34  1  0  0  0  0
  5 14  1  0  0  0  0
  5 35  1  0  0  0  0
  6  8  2  0  0  0  0
  6 17  1  0  0  0  0
  6 36  1  0  0  0  0
  7 18  2  0  0  0  0
  7 37  1  0  0  0  0
  8 19  1  0  0  0  0
  8 38  1  0  0  0  0
  9 13  1  0  0  0  0
  9 14  2  0  0  0  0
  9 39  1  0  0  0  0
 10 16  1  0  0  0  0
 10 17  2  0  0  0  0
 10 40  1  0  0  0  0
 11 13  2  0  0  0  0
 11 27  1  0  0  0  0
 11 41  1  0  0  0  0
 12 13  1  0  0  0  0
 12 20  2  0  0  0  0
 14 16  1  0  0  0  0
 15 18  1  0  0  0  0
 15 20  1  0  0  0  0
 16 19  2  0  0  0  0
 17 21  1  0  0  0  0
 18 25  1  0  0  0  0
 19 26  1  0  0  0  0
 20 28  1  0  0  0  0
 21 29  1  0  0  0  0
 21 30  2  0  0  0  0
 22 23  1  0  0  0  0
 22 24  1  0  0  0  0
 22 42  1  0  0  0  0
 22 43  1  0  0  0  0
 23 24  1  0  0  0  0
 23 44  1  0  0  0  0
 23 45  1  0  0  0  0
 24 29  1  0  0  0  0
 24 46  1  0  0  0  0
 25 47  1  0  0  0  0
 25 48  1  0  0  0  0
 25 49  1  0  0  0  0
 26 50  1  0  0  0  0
 26 51  1  0  0  0  0
 26 52  1  0  0  0  0
 27 28  2  0  0  0  0
 29 53  1  0  0  0  0
M  END
$$$$
DrugBank_2642
 OpenBabel01151909533D

  5  4  0  0  0  0  0  0  0  0999 V2000
    1.8389    1.9802   -1.0140 S   0  0  0  0  0  0  0  0  0  0  0  0
   -1.4335   -2.4496    0.5285 S   0  0  0  0  0  0  0  0  0  0  0  0
   -0.0139    1.1143   -1.1960 S   0  0  0  0  0  0  0  0  0  0  0  0
    0.0838   -1.1962    1.1123 S   0  0  0  0  0  0  0  0  0  0  0  0
   -0.6038    0.6980    0.7247 S   0  0  0  0  0  0  0  0  0  0  0  0
  1  3  1  0  0  0  0
  2  4  1  0  0  0  0
  3  5  1  0  0  0  0
  4  5  1  0  0  0  0
M  END
$$$$
DrugBank_2651
 OpenBabel01151909533D

 32 31  0  0  1  0  0  0  0  0999 V2000
   -1.1630    0.1194   -3.4243 C   0  0  0  0  0  0  0  0  0  0  0  0
    1.7448    1.0171   -3.1304 C   0  0  0  0  0  0  0  0  0  0  0  0
    0.8177    1.4454   -4.2794 C   0  0  0  0  0  0  0  0  0  0  0  0
    3.2105    0.9538   -3.5575 C   0  0  0  0  0  0  0  0  0  0  0  0
   -0.6754    1.4696   -3.9186 C   0  0  2  0  0  0  0  0  0  0  0  0
   -0.9619    2.4639   -2.8850 N   0  0  0  0  0  0  0  0  0  0  0  0
    6.4992    1.4826   -2.9262 N   0  0  0  0  0  0  0  0  0  0  0  0
    4.0525    0.5455   -2.4583 N   0  0  0  0  0  0  0  0  0  0  0  0
    6.2182   -0.6223   -1.2463 N   0  0  0  0  0  0  0  0  0  0  0  0
   -1.6395   -0.1028   -2.3187 O   0  0  0  0  0  0  0  0  0  0  0  0
    5.7897   -0.8894   -3.9087 O   0  0  0  0  0  0  0  0  0  0  0  0
    5.4690   -2.9792   -1.9618 O   0  0  0  0  0  0  0  0  0  0  0  0
    4.3069   -1.8519   -0.0340 O   0  0  0  0  0  0  0  0  0  0  0  0
   -1.0139   -0.8499   -4.3658 O   0  0  0  0  0  0  0  0  0  0  0  0
    6.6093   -2.7505    0.2374 O   0  0  0  0  0  0  0  0  0  0  0  0
    5.6280    0.0767   -2.7592 P   0  0  2  0  0  0  0  0  0  0  0  0
    5.5138   -2.1202   -0.7933 S   0  0  0  0  0  0  0  0  0  0  0  0
    1.4520    0.0228   -2.7736 H   0  0  0  0  0  0  0  0  0  0  0  0
    1.6388    1.7075   -2.2853 H   0  0  0  0  0  0  0  0  0  0  0  0
    1.1156    2.4415   -4.6289 H   0  0  0  0  0  0  0  0  0  0  0  0
    0.9662    0.7645   -5.1279 H   0  0  0  0  0  0  0  0  0  0  0  0
    3.3229    0.2291   -4.3705 H   0  0  0  0  0  0  0  0  0  0  0  0
    3.5435    1.9262   -3.9349 H   0  0  0  0  0  0  0  0  0  0  0  0
   -1.2629    1.7363   -4.8054 H   0  0  0  0  0  0  0  0  0  0  0  0
   -1.7786    2.3376   -2.3292 H   0  0  0  0  0  0  0  0  0  0  0  0
   -0.4562    3.3216   -2.9094 H   0  0  0  0  0  0  0  0  0  0  0  0
    6.5510    2.0877   -2.1078 H   0  0  0  0  0  0  0  0  0  0  0  0
    6.2454    2.0909   -3.7033 H   0  0  0  0  0  0  0  0  0  0  0  0
    3.9536    1.2255   -1.6992 H   0  0  0  0  0  0  0  0  0  0  0  0
    6.3941    0.0365   -0.4765 H   0  0  0  0  0  0  0  0  0  0  0  0
   -0.6204   -0.5528   -5.2138 H   0  0  0  0  0  0  0  0  0  0  0  0
    6.8563   -2.1714    0.9964 H   0  0  0  0  0  0  0  0  0  0  0  0
  1  5  1  0  0  0  0
  1 10  2  0  0  0  0
  1 14  1  0  0  0  0
  2  3  1  0  0  0  0
  2  4  1  0  0  0  0
  2 18  1  0  0  0  0
  2 19  1  0  0  0  0
  3  5  1  0  0  0  0
  3 20  1  0  0  0  0
  3 21  1  0  0  0  0
  4  8  1  0  0  0  0
  4 22  1  0  0  0  0
  4 23  1  0  0  0  0
  5  6  1  0  0  0  0
  5 24  1  6  0  0  0
  6 25  1  0  0  0  0
  6 26  1  0  0  0  0
  7 16  1  0  0  0  0
  7 27  1  0  0  0  0
  7 28  1  0  0  0  0
  8 16  1  0  0  0  0
  8 29  1  0  0  0  0
  9 16  1  0  0  0  0
  9 17  1  0  0  0  0
  9 30  1  0  0  0  0
 12 17  2  0  0  0  0
 13 17  2  0  0  0  0
 14 31  1  0  0  0  0
 15 17  1  0  0  0  0
 15 32  1  0  0  0  0
 16 11  2  6  0  0  0
M  END
$$$$
DrugBank_2662
 OpenBabel01151909533D

 90 91  0  0  1  0  0  0  0  0999 V2000
    3.4903  -10.3064    3.3606 C   0  0  0  0  0  0  0  0  0  0  0  0
    3.6386   -9.5930    2.1712 C   0  0  0  0  0  0  0  0  0  0  0  0
    2.4493  -11.2247    3.4979 C   0  0  0  0  0  0  0  0  0  0  0  0
    2.7459   -9.7976    1.1192 C   0  0  0  0  0  0  0  0  0  0  0  0
    1.5565  -11.4293    2.4459 C   0  0  0  0  0  0  0  0  0  0  0  0
    0.6156   -3.9953   -3.0980 C   0  0  0  0  0  0  0  0  0  0  0  0
    0.9109   -2.6503   -3.3203 C   0  0  0  0  0  0  0  0  0  0  0  0
    2.9397   -4.4223   -2.5946 C   0  0  0  0  0  0  0  0  0  0  0  0
    3.2350   -3.0773   -2.8170 C   0  0  0  0  0  0  0  0  0  0  0  0
    1.7048  -10.7158    1.2565 C   0  0  0  0  0  0  0  0  0  0  0  0
    1.6301   -4.8813   -2.7350 C   0  0  0  0  0  0  0  0  0  0  0  0
    2.2205   -2.1913   -3.1799 C   0  0  0  0  0  0  0  0  0  0  0  0
    4.6085   -2.6185   -2.6651 C   0  0  0  0  0  0  0  0  0  0  0  0
    2.0355    1.3793   -2.7209 C   0  0  0  0  0  0  0  0  0  0  0  0
    4.6751   -1.4770    4.8805 C   0  0  0  0  0  0  0  0  0  0  0  0
   -1.5136  -13.9469    2.6142 C   0  0  0  0  0  0  0  0  0  0  0  0
   -3.6371  -13.5048    3.8810 C   0  0  0  0  0  0  0  0  0  0  0  0
   -3.7160  -13.8750    1.3981 C   0  0  0  0  0  0  0  0  0  0  0  0
    0.7377  -10.9377    0.1180 C   0  0  0  0  0  0  0  0  0  0  0  0
    1.3104   -6.3377   -2.4958 C   0  0  0  0  0  0  0  0  0  0  0  0
    1.4448    0.0561   -3.1218 C   0  0  0  0  0  0  0  0  0  0  0  0
    3.9202   -1.6935    3.5787 C   0  0  0  0  0  0  0  0  0  0  0  0
    3.7847   -3.1802    3.2504 C   0  0  0  0  0  0  0  0  0  0  0  0
    3.0548   -3.3929    1.9243 C   0  0  0  0  0  0  0  0  0  0  0  0
    2.8860   -4.8756    1.6155 C   0  0  0  0  0  0  0  0  0  0  0  0
   -0.5109  -10.0266    0.1195 C   0  0  2  0  0  0  0  0  0  0  0  0
    0.9292   -6.7047   -1.0435 C   0  0  2  0  0  0  0  0  0  0  0  0
   -0.2026   -8.5059    0.1404 C   0  0  1  0  0  0  0  0  0  0  0  0
    2.0626   -6.4959   -0.0044 C   0  0  2  0  0  0  0  0  0  0  0  0
   -2.0535  -11.5955    1.1423 C   0  0  2  0  0  0  0  0  0  0  0  0
   -2.8999  -13.3068    2.5583 C   0  0  0  0  0  0  0  0  0  0  0  0
    2.1857   -5.0835    0.3579 N   0  0  0  0  0  0  0  0  0  0  0  0
    0.5538   -8.1097   -1.0479 N   0  0  0  0  0  0  0  0  0  0  0  0
   -1.2881  -10.3679    1.3251 N   0  0  0  0  0  0  0  0  0  0  0  0
    5.1221   -1.6835   -3.2862 O   0  0  0  0  0  0  0  0  0  0  0  0
    3.2274    1.6291   -2.6200 O   0  0  0  0  0  0  0  0  0  0  0  0
    5.2976   -3.3412   -1.7410 O   0  0  0  0  0  0  0  0  0  0  0  0
    1.0490    2.2796   -2.4816 O   0  0  0  0  0  0  0  0  0  0  0  0
   -1.4527   -7.8138    0.2173 O   0  0  0  0  0  0  0  0  0  0  0  0
    3.2736   -6.9935   -0.5818 O   0  0  0  0  0  0  0  0  0  0  0  0
   -2.9721  -11.5056    0.0532 O   0  0  0  0  0  0  0  0  0  0  0  0
    2.4889   -0.8737   -3.4023 O   0  0  0  0  0  0  0  0  0  0  0  0
   -2.7445  -11.9074    2.3599 O   0  0  0  0  0  0  0  0  0  0  0  0
    4.1864  -10.1479    4.1791 H   0  0  0  0  0  0  0  0  0  0  0  0
    4.4498   -8.8788    2.0637 H   0  0  0  0  0  0  0  0  0  0  0  0
    2.3342  -11.7811    4.4233 H   0  0  0  0  0  0  0  0  0  0  0  0
    2.8690   -9.2371    0.1962 H   0  0  0  0  0  0  0  0  0  0  0  0
    0.7484  -12.1466    2.5619 H   0  0  0  0  0  0  0  0  0  0  0  0
   -0.4069   -4.3450   -3.2114 H   0  0  0  0  0  0  0  0  0  0  0  0
    0.1162   -1.9654   -3.6034 H   0  0  0  0  0  0  0  0  0  0  0  0
    3.7287   -5.1160   -2.3126 H   0  0  0  0  0  0  0  0  0  0  0  0
    4.1628   -1.9834    5.7046 H   0  0  0  0  0  0  0  0  0  0  0  0
    5.6920   -1.8771    4.8157 H   0  0  0  0  0  0  0  0  0  0  0  0
    4.7395   -0.4117    5.1241 H   0  0  0  0  0  0  0  0  0  0  0  0
   -0.9812  -13.8070    1.6666 H   0  0  0  0  0  0  0  0  0  0  0  0
   -0.9059  -13.5232    3.4204 H   0  0  0  0  0  0  0  0  0  0  0  0
   -1.5886  -15.0293    2.7697 H   0  0  0  0  0  0  0  0  0  0  0  0
   -4.6323  -13.0471    3.8453 H   0  0  0  0  0  0  0  0  0  0  0  0
   -3.1018  -13.0161    4.7031 H   0  0  0  0  0  0  0  0  0  0  0  0
   -3.7521  -14.5660    4.1245 H   0  0  0  0  0  0  0  0  0  0  0  0
   -4.7104  -13.4160    1.3577 H   0  0  0  0  0  0  0  0  0  0  0  0
   -3.2195  -13.7091    0.4365 H   0  0  0  0  0  0  0  0  0  0  0  0
   -3.8772  -14.9515    1.5255 H   0  0  0  0  0  0  0  0  0  0  0  0
    1.2608  -10.8406   -0.8430 H   0  0  0  0  0  0  0  0  0  0  0  0
    0.4287  -11.9913    0.1781 H   0  0  0  0  0  0  0  0  0  0  0  0
    0.5129   -6.6637   -3.1773 H   0  0  0  0  0  0  0  0  0  0  0  0
    2.2038   -6.9024   -2.7992 H   0  0  0  0  0  0  0  0  0  0  0  0
    0.8484    0.1854   -4.0287 H   0  0  0  0  0  0  0  0  0  0  0  0
    0.8237   -0.3395   -2.3137 H   0  0  0  0  0  0  0  0  0  0  0  0
    4.4483   -1.1794    2.7672 H   0  0  0  0  0  0  0  0  0  0  0  0
    2.9264   -1.2377    3.6591 H   0  0  0  0  0  0  0  0  0  0  0  0
    3.2382   -3.6859    4.0558 H   0  0  0  0  0  0  0  0  0  0  0  0
    4.7805   -3.6373    3.1992 H   0  0  0  0  0  0  0  0  0  0  0  0
    3.6112   -2.9090    1.1117 H   0  0  0  0  0  0  0  0  0  0  0  0
    2.0703   -2.9096    1.9609 H   0  0  0  0  0  0  0  0  0  0  0  0
    2.3073   -5.3768    2.3977 H   0  0  0  0  0  0  0  0  0  0  0  0
    3.8593   -5.3698    1.5334 H   0  0  0  0  0  0  0  0  0  0  0  0
   -1.1551  -10.2555   -0.7384 H   0  0  0  0  0  0  0  0  0  0  0  0
    0.0386   -6.1479   -0.7272 H   0  0  0  0  0  0  0  0  0  0  0  0
    0.3700   -8.2736    1.0478 H   0  0  0  0  0  0  0  0  0  0  0  0
    1.8401   -7.0967    0.8871 H   0  0  0  0  0  0  0  0  0  0  0  0
   -1.3611  -12.4184    0.9270 H   0  0  0  0  0  0  0  0  0  0  0  0
    1.2595   -4.6606    0.4022 H   0  0  0  0  0  0  0  0  0  0  0  0
    0.0112   -8.3215   -1.8842 H   0  0  0  0  0  0  0  0  0  0  0  0
   -1.9113   -9.5986    1.5395 H   0  0  0  0  0  0  0  0  0  0  0  0
    6.2244   -3.0392   -1.6305 H   0  0  0  0  0  0  0  0  0  0  0  0
    0.1582    1.8909   -2.6159 H   0  0  0  0  0  0  0  0  0  0  0  0
   -1.9697   -8.0600   -0.5674 H   0  0  0  0  0  0  0  0  0  0  0  0
    3.9817   -6.8619    0.0700 H   0  0  0  0  0  0  0  0  0  0  0  0
   -3.5777  -10.7736    0.2579 H   0  0  0  0  0  0  0  0  0  0  0  0
  1  2  2  0  0  0  0
  1  3  1  0  0  0  0
  1 44  1  0  0  0  0
  2  4  1  0  0  0  0
  2 45  1  0  0  0  0
  3  5  2  0  0  0  0
  3 46  1  0  0  0  0
  4 10  2  0  0  0  0
  4 47  1  0  0  0  0
  5 10  1  0  0  0  0
  5 48  1  0  0  0  0
  6  7  2  0  0  0  0
  6 11  1  0  0  0  0
  6 49  1  0  0  0  0
  7 12  1  0  0  0  0
  7 50  1  0  0  0  0
  8  9  1  0  0  0  0
  8 11  2  0  0  0  0
  8 51  1  0  0  0  0
  9 12  2  0  0  0  0
  9 13  1  0  0  0  0
 10 19  1  0  0  0  0
 11 20  1  0  0  0  0
 12 42  1  0  0  0  0
 13 35  2  0  0  0  0
 13 37  1  0  0  0  0
 14 21  1  0  0  0  0
 14 36  2  0  0  0  0
 14 38  1  0  0  0  0
 15 22  1  0  0  0  0
 15 52  1  0  0  0  0
 15 53  1  0  0  0  0
 15 54  1  0  0  0  0
 16 31  1  0  0  0  0
 16 55  1  0  0  0  0
 16 56  1  0  0  0  0
 16 57  1  0  0  0  0
 17 31  1  0  0  0  0
 17 58  1  0  0  0  0
 17 59  1  0  0  0  0
 17 60  1  0  0  0  0
 18 31  1  0  0  0  0
 18 61  1  0  0  0  0
 18 62  1  0  0  0  0
 18 63  1  0  0  0  0
 19 26  1  0  0  0  0
 19 64  1  0  0  0  0
 19 65  1  0  0  0  0
 20 27  1  0  0  0  0
 20 66  1  0  0  0  0
 20 67  1  0  0  0  0
 21 42  1  0  0  0  0
 21 68  1  0  0  0  0
 21 69  1  0  0  0  0
 22 23  1  0  0  0  0
 22 70  1  0  0  0  0
 22 71  1  0  0  0  0
 23 24  1  0  0  0  0
 23 72  1  0  0  0  0
 23 73  1  0  0  0  0
 24 25  1  0  0  0  0
 24 74  1  0  0  0  0
 24 75  1  0  0  0  0
 25 32  1  0  0  0  0
 25 76  1  0  0  0  0
 25 77  1  0  0  0  0
 26 28  1  0  0  0  0
 26 34  1  0  0  0  0
 26 78  1  6  0  0  0
 27 29  1  0  0  0  0
 27 33  1  0  0  0  0
 27 79  1  1  0  0  0
 28 33  1  0  0  0  0
 28 39  1  0  0  0  0
 28 80  1  1  0  0  0
 29 32  1  0  0  0  0
 29 40  1  0  0  0  0
 29 81  1  1  0  0  0
 30 34  1  0  0  0  0
 30 41  1  0  0  0  0
 30 43  1  0  0  0  0
 30 82  1  6  0  0  0
 31 43  1  0  0  0  0
 32 83  1  0  0  0  0
 33 84  1  0  0  0  0
 34 85  1  0  0  0  0
 37 86  1  0  0  0  0
 38 87  1  0  0  0  0
 39 88  1  0  0  0  0
 40 89  1  0  0  0  0
 41 90  1  0  0  0  0
M  END
$$$$
DrugBank_2671
 OpenBabel01151909533D

 29 30  0  0  0  0  0  0  0  0999 V2000
    4.0888   -1.0767   -0.2812 C   0  0  0  0  0  0  0  0  0  0  0  0
    2.8071   -1.5095   -0.7285 C   0  0  0  0  0  0  0  0  0  0  0  0
    1.4420    3.5917   -3.3953 C   0  0  0  0  0  0  0  0  0  0  0  0
    0.6114    2.5125   -3.8144 C   0  0  0  0  0  0  0  0  0  0  0  0
    4.6796   -0.2048   -1.1691 C   0  0  0  0  0  0  0  0  0  0  0  0
    2.4669   -0.9516   -1.9414 C   0  0  0  0  0  0  0  0  0  0  0  0
    1.4925    3.7033   -2.0233 C   0  0  0  0  0  0  0  0  0  0  0  0
    0.0588    1.8401   -2.7464 C   0  0  0  0  0  0  0  0  0  0  0  0
    1.2124   -1.1500   -2.7419 C   0  0  0  0  0  0  0  0  0  0  0  0
    3.1318    5.8048   -2.0584 N   0  0  0  0  0  0  0  0  0  0  0  0
    0.0131   -0.7460   -1.9942 N   0  0  0  0  0  0  0  0  0  0  0  0
    1.3182    5.5900   -0.2390 O   0  0  0  0  0  0  0  0  0  0  0  0
    3.3070    4.0441   -0.1859 O   0  0  0  0  0  0  0  0  0  0  0  0
   -2.0433    0.7639   -1.6360 O   0  0  0  0  0  0  0  0  0  0  0  0
   -1.4075    0.0888   -3.9736 O   0  0  0  0  0  0  0  0  0  0  0  0
    3.6902    0.0889   -2.5356 S   0  0  0  0  0  0  0  0  0  0  0  0
    0.5413    2.5101   -1.2462 S   0  0  0  0  0  0  0  0  0  0  0  0
    2.3233    4.8060   -0.9355 S   0  0  0  0  0  0  0  0  0  0  0  0
   -1.0264    0.4504   -2.6217 S   0  0  0  0  0  0  0  0  0  0  0  0
    4.5542   -1.3879    0.6449 H   0  0  0  0  0  0  0  0  0  0  0  0
    2.1699   -2.1945   -0.1836 H   0  0  0  0  0  0  0  0  0  0  0  0
    1.9752    4.2519   -4.0675 H   0  0  0  0  0  0  0  0  0  0  0  0
    0.4296    2.2448   -4.8474 H   0  0  0  0  0  0  0  0  0  0  0  0
    5.6448    0.2734   -1.0810 H   0  0  0  0  0  0  0  0  0  0  0  0
    1.2473   -0.5631   -3.6662 H   0  0  0  0  0  0  0  0  0  0  0  0
    1.0907   -2.2001   -3.0279 H   0  0  0  0  0  0  0  0  0  0  0  0
    3.9243    5.4033   -2.5743 H   0  0  0  0  0  0  0  0  0  0  0  0
    2.5670    6.4616   -2.6105 H   0  0  0  0  0  0  0  0  0  0  0  0
   -0.3722   -1.4457   -1.3482 H   0  0  0  0  0  0  0  0  0  0  0  0
  1  2  1  0  0  0  0
  1  5  2  0  0  0  0
  1 20  1  0  0  0  0
  2  6  2  0  0  0  0
  2 21  1  0  0  0  0
  3  4  1  0  0  0  0
  3  7  2  0  0  0  0
  3 22  1  0  0  0  0
  4  8  2  0  0  0  0
  4 23  1  0  0  0  0
  5 16  1  0  0  0  0
  5 24  1  0  0  0  0
  6  9  1  0  0  0  0
  6 16  1  0  0  0  0
  7 17  1  0  0  0  0
  7 18  1  0  0  0  0
  8 17  1  0  0  0  0
  8 19  1  0  0  0  0
  9 11  1  0  0  0  0
  9 25  1  0  0  0  0
  9 26  1  0  0  0  0
 10 18  1  0  0  0  0
 10 27  1  0  0  0  0
 10 28  1  0  0  0  0
 11 19  1  0  0  0  0
 11 29  1  0  0  0  0
 12 18  2  0  0  0  0
 13 18  2  0  0  0  0
 14 19  2  0  0  0  0
 15 19  2  0  0  0  0
M  END
$$$$
DrugBank_2682
 OpenBabel01151909533D

 20 20  0  0  1  0  0  0  0  0999 V2000
   -0.6716   -1.8814   -1.8673 C   0  0  0  0  0  0  0  0  0  0  0  0
    0.7577   -3.5838   -2.1776 C   0  0  0  0  0  0  0  0  0  0  0  0
    1.1116    1.3501   -1.9311 C   0  0  0  0  0  0  0  0  0  0  0  0
    0.9048   -0.5324   -0.3113 C   0  0  0  0  0  0  0  0  0  0  0  0
    1.8724    0.4027   -1.0253 C   0  0  2  0  0  0  0  0  0  0  0  0
   -0.4784   -3.0949   -2.4884 N   0  0  0  0  0  0  0  0  0  0  0  0
    0.4821   -1.6194   -1.1534 N   0  0  0  0  0  0  0  0  0  0  0  0
    2.6238    1.2135   -0.0987 N   0  0  0  0  0  0  0  0  0  0  0  0
   -1.6708   -1.1792   -1.9385 O   0  0  0  0  0  0  0  0  0  0  0  0
    1.2559   -4.6343   -2.5552 O   0  0  0  0  0  0  0  0  0  0  0  0
    0.6246    2.4186   -1.5849 O   0  0  0  0  0  0  0  0  0  0  0  0
    1.3883   -2.6890   -1.3445 O   0  0  0  0  0  0  0  0  0  0  0  0
    0.9816    0.8538   -3.1895 O   0  0  0  0  0  0  0  0  0  0  0  0
    1.3613   -0.9705    0.5831 H   0  0  0  0  0  0  0  0  0  0  0  0
    0.0000    0.0000    0.0000 H   0  0  0  0  0  0  0  0  0  0  0  0
    2.6167   -0.1480   -1.6108 H   0  0  0  0  0  0  0  0  0  0  0  0
   -1.1533   -3.5564   -3.0870 H   0  0  0  0  0  0  0  0  0  0  0  0
    2.9856    2.0989   -0.4088 H   0  0  0  0  0  0  0  0  0  0  0  0
    2.9446    0.8007    0.7603 H   0  0  0  0  0  0  0  0  0  0  0  0
    1.4168   -0.0117   -3.3446 H   0  0  0  0  0  0  0  0  0  0  0  0
  1  6  1  0  0  0  0
  1  7  1  0  0  0  0
  1  9  2  0  0  0  0
  2  6  1  0  0  0  0
  2 10  2  0  0  0  0
  2 12  1  0  0  0  0
  3  5  1  0  0  0  0
  3 11  2  0  0  0  0
  3 13  1  0  0  0  0
  4  5  1  0  0  0  0
  4  7  1  0  0  0  0
  4 14  1  0  0  0  0
  4 15  1  0  0  0  0
  5  8  1  0  0  0  0
  5 16  1  6  0  0  0
  6 17  1  0  0  0  0
  7 12  1  0  0  0  0
  8 18  1  0  0  0  0
  8 19  1  0  0  0  0
 13 20  1  0  0  0  0
M  END
$$$$
DrugBank_2684
 OpenBabel01151909533D

 96 99  0  0  1  0  0  0  0  0999 V2000
   -9.0585  -13.2715   10.5194 C   0  0  0  0  0  0  0  0  0  0  0  0
   -4.1251   -2.9964    3.7154 C   0  0  0  0  0  0  0  0  0  0  0  0
   -8.3342  -14.3616   10.4658 C   0  0  0  0  0  0  0  0  0  0  0  0
   -5.1133   -2.1271    3.8861 C   0  0  0  0  0  0  0  0  0  0  0  0
   -4.5866   -4.2975    4.0503 C   0  0  0  0  0  0  0  0  0  0  0  0
   -6.2602   -2.9230    4.3544 C   0  0  0  0  0  0  0  0  0  0  0  0
   -9.7855  -12.1931   10.5756 C   0  0  0  0  0  0  0  0  0  0  0  0
   -5.1140   -0.7187    3.6762 C   0  0  0  0  0  0  0  0  0  0  0  0
   -3.8803   -5.4346    4.0061 C   0  0  0  0  0  0  0  0  0  0  0  0
   -7.1230   -9.4955    7.5381 C   0  0  0  0  0  0  0  0  0  0  0  0
   -6.5396   -8.2792    7.0111 C   0  0  0  0  0  0  0  0  0  0  0  0
   -7.9173   -9.5100    8.6215 C   0  0  0  0  0  0  0  0  0  0  0  0
   -5.7362   -8.1436    5.9423 C   0  0  0  0  0  0  0  0  0  0  0  0
   -8.5017  -10.7277    9.1483 C   0  0  0  0  0  0  0  0  0  0  0  0
   -5.1579   -6.9182    5.4243 C   0  0  0  0  0  0  0  0  0  0  0  0
   -4.0874    0.0887    4.0021 C   0  0  0  0  0  0  0  0  0  0  0  0
   -9.3085  -10.8569   10.2230 C   0  0  0  0  0  0  0  0  0  0  0  0
   -4.3500   -6.7792    4.3501 C   0  0  0  0  0  0  0  0  0  0  0  0
   -4.8370  -18.2730   11.0270 C   0  0  0  0  0  0  0  0  0  0  0  0
   -6.0159  -15.3500   10.8144 C   0  0  0  0  0  0  0  0  0  0  0  0
   -8.0353  -16.6868   11.4430 C   0  0  0  0  0  0  0  0  0  0  0  0
   -4.2721    3.9144    4.7405 C   0  0  0  0  0  0  0  0  0  0  0  0
   -2.5300    3.5368    2.9375 C   0  0  0  0  0  0  0  0  0  0  0  0
   -6.6315  -16.7457   10.8489 C   0  0  2  0  0  0  0  0  0  0  0  0
   -2.8394    4.1843    4.2830 C   0  0  2  0  0  0  0  0  0  0  0  0
   -6.8541  -14.3165   10.0252 C   0  0  0  0  0  0  0  0  0  0  0  0
   -8.9689  -15.7442   10.6644 C   0  0  1  0  0  0  0  0  0  0  0  0
   -4.0848    1.5451    3.7904 C   0  0  1  0  0  0  0  0  0  0  0  0
   -4.6253    2.4145    4.9432 C   0  0  0  0  0  0  0  0  0  0  0  0
   -3.0346    2.1192    2.8138 C   0  0  2  0  0  0  0  0  0  0  0  0
   -9.7644   -9.7178   11.1021 C   0  0  0  0  0  0  0  0  0  0  0  0
   -3.8877   -7.9114    3.4666 C   0  0  0  0  0  0  0  0  0  0  0  0
   -4.0844  -19.1184   12.0092 C   0  0  0  0  0  0  0  0  0  0  0  0
   -6.2188  -12.9280   10.2929 C   0  0  0  0  0  0  0  0  0  0  0  0
   -6.7415  -14.5820    8.5092 C   0  0  0  0  0  0  0  0  0  0  0  0
  -10.3274  -15.6981   11.3880 C   0  0  0  0  0  0  0  0  0  0  0  0
   -6.1678    2.3013    4.9927 C   0  0  0  0  0  0  0  0  0  0  0  0
   -4.0863    1.9253    6.3083 C   0  0  0  0  0  0  0  0  0  0  0  0
   -2.2196    1.2268    1.9193 C   0  0  0  0  0  0  0  0  0  0  0  0
   -7.3630   -2.4737    4.6240 O   0  0  0  0  0  0  0  0  0  0  0  0
   -4.5787  -18.2163    9.8323 O   0  0  0  0  0  0  0  0  0  0  0  0
   -5.9155   -4.2497    4.4472 O   0  0  0  0  0  0  0  0  0  0  0  0
   -4.4344    2.0741    2.4974 O   0  0  0  0  0  0  0  0  0  0  0  0
   -1.8931    3.7799    5.2651 O   0  0  0  0  0  0  0  0  0  0  0  0
   -9.2120  -16.3030    9.3681 O   0  0  0  0  0  0  0  0  0  0  0  0
   -5.8326  -17.5938   11.6700 O   0  0  0  0  0  0  0  0  0  0  0  0
   -3.1262   -2.7665    3.3772 H   0  0  0  0  0  0  0  0  0  0  0  0
  -10.8157  -12.2936   10.9066 H   0  0  0  0  0  0  0  0  0  0  0  0
   -6.0107   -0.2915    3.2253 H   0  0  0  0  0  0  0  0  0  0  0  0
   -2.8446   -5.3511    3.6794 H   0  0  0  0  0  0  0  0  0  0  0  0
   -6.9032  -10.4288    7.0290 H   0  0  0  0  0  0  0  0  0  0  0  0
   -6.7874   -7.3668    7.5531 H   0  0  0  0  0  0  0  0  0  0  0  0
   -8.1342   -8.5750    9.1271 H   0  0  0  0  0  0  0  0  0  0  0  0
   -5.5003   -9.0629    5.4142 H   0  0  0  0  0  0  0  0  0  0  0  0
   -8.2399  -11.6265    8.5885 H   0  0  0  0  0  0  0  0  0  0  0  0
   -5.4168   -6.0181    5.9785 H   0  0  0  0  0  0  0  0  0  0  0  0
   -3.1926   -0.3342    4.4531 H   0  0  0  0  0  0  0  0  0  0  0  0
   -5.8774  -15.0059   11.8499 H   0  0  0  0  0  0  0  0  0  0  0  0
   -4.9995  -15.4158   10.4025 H   0  0  0  0  0  0  0  0  0  0  0  0
   -8.4459  -17.7055   11.4554 H   0  0  0  0  0  0  0  0  0  0  0  0
   -7.9699  -16.3778   12.4955 H   0  0  0  0  0  0  0  0  0  0  0  0
   -4.4598    4.4585    5.6754 H   0  0  0  0  0  0  0  0  0  0  0  0
   -4.9473    4.3509    3.9916 H   0  0  0  0  0  0  0  0  0  0  0  0
   -2.9818    4.1342    2.1354 H   0  0  0  0  0  0  0  0  0  0  0  0
   -1.4457    3.5507    2.7716 H   0  0  0  0  0  0  0  0  0  0  0  0
   -6.6551  -17.1882    9.8474 H   0  0  0  0  0  0  0  0  0  0  0  0
   -2.7139    5.2783    4.1739 H   0  0  0  0  0  0  0  0  0  0  0  0
   -9.0590   -9.5629   11.9263 H   0  0  0  0  0  0  0  0  0  0  0  0
  -10.7447   -9.8772   11.5558 H   0  0  0  0  0  0  0  0  0  0  0  0
   -9.8342   -8.7900   10.5229 H   0  0  0  0  0  0  0  0  0  0  0  0
   -2.9486   -8.3322    3.8432 H   0  0  0  0  0  0  0  0  0  0  0  0
   -4.5953   -8.7401    3.4017 H   0  0  0  0  0  0  0  0  0  0  0  0
   -3.7276   -7.5571    2.4421 H   0  0  0  0  0  0  0  0  0  0  0  0
   -3.2524  -18.5476   12.4289 H   0  0  0  0  0  0  0  0  0  0  0  0
   -3.7211  -20.0242   11.5171 H   0  0  0  0  0  0  0  0  0  0  0  0
   -4.7533  -19.4100   12.8241 H   0  0  0  0  0  0  0  0  0  0  0  0
   -5.1878  -12.9504    9.9680 H   0  0  0  0  0  0  0  0  0  0  0  0
   -6.2728  -12.7211   11.3528 H   0  0  0  0  0  0  0  0  0  0  0  0
   -6.7703  -12.1821    9.7373 H   0  0  0  0  0  0  0  0  0  0  0  0
   -5.6977  -14.5461    8.2208 H   0  0  0  0  0  0  0  0  0  0  0  0
   -7.2981  -13.8213    7.9750 H   0  0  0  0  0  0  0  0  0  0  0  0
   -7.1512  -15.5610    8.2907 H   0  0  0  0  0  0  0  0  0  0  0  0
  -10.7111  -16.7073   11.4907 H   0  0  0  0  0  0  0  0  0  0  0  0
  -11.0207  -15.0999   10.8068 H   0  0  0  0  0  0  0  0  0  0  0  0
  -10.1940  -15.2550   12.3689 H   0  0  0  0  0  0  0  0  0  0  0  0
   -6.4386    1.2626    5.1336 H   0  0  0  0  0  0  0  0  0  0  0  0
   -6.5762    2.6679    4.0595 H   0  0  0  0  0  0  0  0  0  0  0  0
   -6.5365    2.8963    5.8185 H   0  0  0  0  0  0  0  0  0  0  0  0
   -4.3419    0.8810    6.4303 H   0  0  0  0  0  0  0  0  0  0  0  0
   -4.5410    2.5141    7.0941 H   0  0  0  0  0  0  0  0  0  0  0  0
   -3.0115    2.0499    6.3239 H   0  0  0  0  0  0  0  0  0  0  0  0
   -2.6454    0.2166    1.8789 H   0  0  0  0  0  0  0  0  0  0  0  0
   -1.1877    1.1438    2.2823 H   0  0  0  0  0  0  0  0  0  0  0  0
   -2.1869    1.6207    0.8959 H   0  0  0  0  0  0  0  0  0  0  0  0
   -2.0859    4.2927    6.0663 H   0  0  0  0  0  0  0  0  0  0  0  0
   -9.6110  -17.1714    9.5201 H   0  0  0  0  0  0  0  0  0  0  0  0
  1  3  2  0  0  0  0
  1  7  2  0  0  0  0
  2  4  2  0  0  0  0
  2  5  1  0  0  0  0
  2 47  1  0  0  0  0
  3 26  1  0  0  0  0
  3 27  1  0  0  0  0
  4  6  1  0  0  0  0
  4  8  1  0  0  0  0
  5  9  2  0  0  0  0
  5 42  1  0  0  0  0
  6 40  2  0  0  0  0
  6 42  1  0  0  0  0
  7 17  1  0  0  0  0
  7 48  1  0  0  0  0
  8 16  2  0  0  0  0
  8 49  1  0  0  0  0
  9 18  1  0  0  0  0
  9 50  1  0  0  0  0
 10 11  1  0  0  0  0
 10 12  2  0  0  0  0
 10 51  1  0  0  0  0
 11 13  2  0  0  0  0
 11 52  1  0  0  0  0
 12 14  1  0  0  0  0
 12 53  1  0  0  0  0
 13 15  1  0  0  0  0
 13 54  1  0  0  0  0
 14 17  2  0  0  0  0
 14 55  1  0  0  0  0
 15 18  2  0  0  0  0
 15 56  1  0  0  0  0
 16 28  1  0  0  0  0
 16 57  1  0  0  0  0
 17 31  1  0  0  0  0
 18 32  1  0  0  0  0
 19 33  1  0  0  0  0
 19 41  2  0  0  0  0
 19 46  1  0  0  0  0
 20 24  1  0  0  0  0
 20 26  1  0  0  0  0
 20 58  1  0  0  0  0
 20 59  1  0  0  0  0
 21 24  1  0  0  0  0
 21 27  1  0  0  0  0
 21 60  1  0  0  0  0
 21 61  1  0  0  0  0
 22 25  1  0  0  0  0
 22 29  1  0  0  0  0
 22 62  1  0  0  0  0
 22 63  1  0  0  0  0
 23 25  1  0  0  0  0
 23 30  1  0  0  0  0
 23 64  1  0  0  0  0
 23 65  1  0  0  0  0
 24 46  1  0  0  0  0
 24 66  1  6  0  0  0
 25 44  1  0  0  0  0
 25 67  1  6  0  0  0
 26 34  1  0  0  0  0
 26 35  1  0  0  0  0
 27 36  1  0  0  0  0
 27 45  1  6  0  0  0
 28 29  1  0  0  0  0
 28 30  1  1  0  0  0
 28 43  1  0  0  0  0
 29 37  1  0  0  0  0
 29 38  1  0  0  0  0
 30 39  1  6  0  0  0
 30 43  1  0  0  0  0
 31 68  1  0  0  0  0
 31 69  1  0  0  0  0
 31 70  1  0  0  0  0
 32 71  1  0  0  0  0
 32 72  1  0  0  0  0
 32 73  1  0  0  0  0
 33 74  1  0  0  0  0
 33 75  1  0  0  0  0
 33 76  1  0  0  0  0
 34 77  1  0  0  0  0
 34 78  1  0  0  0  0
 34 79  1  0  0  0  0
 35 80  1  0  0  0  0
 35 81  1  0  0  0  0
 35 82  1  0  0  0  0
 36 83  1  0  0  0  0
 36 84  1  0  0  0  0
 36 85  1  0  0  0  0
 37 86  1  0  0  0  0
 37 87  1  0  0  0  0
 37 88  1  0  0  0  0
 38 89  1  0  0  0  0
 38 90  1  0  0  0  0
 38 91  1  0  0  0  0
 39 92  1  0  0  0  0
 39 93  1  0  0  0  0
 39 94  1  0  0  0  0
 44 95  1  0  0  0  0
 45 96  1  0  0  0  0
M  END
$$$$
DrugBank_2686
 OpenBabel01151909533D

 40 39  0  0  1  0  0  0  0  0999 V2000
   -1.0652   -2.2846    0.3451 C   0  0  0  0  0  0  0  0  0  0  0  0
    1.1210   -0.0870    1.2447 C   0  0  0  0  0  0  0  0  0  0  0  0
    2.5529    2.6242    2.3274 C   0  0  0  0  0  0  0  0  0  0  0  0
   -2.7216   -5.9932    2.3791 C   0  0  0  0  0  0  0  0  0  0  0  0
   -1.3519   -3.7680    0.5091 C   0  0  0  0  0  0  0  0  0  0  0  0
    1.1411    2.1271    2.3902 C   0  0  0  0  0  0  0  0  0  0  0  0
   -2.8260   -4.0817    0.7717 C   0  0  0  0  0  0  0  0  0  0  0  0
    2.0183   -0.7290   -1.0426 C   0  0  0  0  0  0  0  0  0  0  0  0
    0.8128   -0.7219   -0.1087 C   0  0  1  0  0  0  0  0  0  0  0  0
   -3.1038   -5.5737    0.9735 C   0  0  2  0  0  0  0  0  0  0  0  0
   -4.4979   -5.9000    0.8130 N   0  0  0  0  0  0  0  0  0  0  0  0
    0.8972    1.2823    1.2434 N   0  0  0  0  0  0  0  0  0  0  0  0
    0.2811   -2.0471    0.1091 N   0  0  0  0  0  0  0  0  0  0  0  0
   -1.9361   -1.4201    0.3947 O   0  0  0  0  0  0  0  0  0  0  0  0
    1.5447   -0.7308    2.2024 O   0  0  0  0  0  0  0  0  0  0  0  0
    3.3694    2.3830    1.4510 O   0  0  0  0  0  0  0  0  0  0  0  0
   -3.4476   -5.9143    3.3617 O   0  0  0  0  0  0  0  0  0  0  0  0
    0.7437    0.2042   -3.1376 O   0  0  0  0  0  0  0  0  0  0  0  0
    1.2077   -2.2821   -2.9930 O   0  0  0  0  0  0  0  0  0  0  0  0
    2.8172    3.4049    3.4070 O   0  0  0  0  0  0  0  0  0  0  0  0
   -1.4371   -6.4318    2.4453 O   0  0  0  0  0  0  0  0  0  0  0  0
    3.0864   -0.6627   -3.3621 O   0  0  0  0  0  0  0  0  0  0  0  0
    1.5946   -0.9050   -2.7491 S   0  0  0  0  0  0  0  0  0  0  0  0
   -0.7212   -4.1740    1.3080 H   0  0  0  0  0  0  0  0  0  0  0  0
   -1.0491   -4.2560   -0.4256 H   0  0  0  0  0  0  0  0  0  0  0  0
    0.9986    1.5393    3.3009 H   0  0  0  0  0  0  0  0  0  0  0  0
    0.4480    2.9719    2.3658 H   0  0  0  0  0  0  0  0  0  0  0  0
   -3.4148   -3.7148   -0.0796 H   0  0  0  0  0  0  0  0  0  0  0  0
   -3.1716   -3.5178    1.6476 H   0  0  0  0  0  0  0  0  0  0  0  0
    2.5773    0.2093   -0.9627 H   0  0  0  0  0  0  0  0  0  0  0  0
    2.6986   -1.5545   -0.8111 H   0  0  0  0  0  0  0  0  0  0  0  0
    0.0022   -0.1500   -0.5759 H   0  0  0  0  0  0  0  0  0  0  0  0
   -2.5634   -6.1960    0.2532 H   0  0  0  0  0  0  0  0  0  0  0  0
   -4.8686   -6.7069    1.2865 H   0  0  0  0  0  0  0  0  0  0  0  0
   -5.0242   -5.4492    0.0833 H   0  0  0  0  0  0  0  0  0  0  0  0
    0.5443    1.7125    0.3937 H   0  0  0  0  0  0  0  0  0  0  0  0
    0.9190   -2.8374    0.0887 H   0  0  0  0  0  0  0  0  0  0  0  0
    2.0402    3.4830    4.0007 H   0  0  0  0  0  0  0  0  0  0  0  0
   -0.9567   -6.4501    1.5901 H   0  0  0  0  0  0  0  0  0  0  0  0
    3.4475    0.2480   -3.2493 H   0  0  0  0  0  0  0  0  0  0  0  0
  1  5  1  0  0  0  0
  1 13  1  0  0  0  0
  1 14  2  0  0  0  0
  2  9  1  0  0  0  0
  2 12  1  0  0  0  0
  2 15  2  0  0  0  0
  3  6  1  0  0  0  0
  3 16  2  0  0  0  0
  3 20  1  0  0  0  0
  4 10  1  0  0  0  0
  4 17  2  0  0  0  0
  4 21  1  0  0  0  0
  5  7  1  0  0  0  0
  5 24  1  0  0  0  0
  5 25  1  0  0  0  0
  6 12  1  0  0  0  0
  6 26  1  0  0  0  0
  6 27  1  0  0  0  0
  7 10  1  0  0  0  0
  7 28  1  0  0  0  0
  7 29  1  0  0  0  0
  8  9  1  0  0  0  0
  8 23  1  0  0  0  0
  8 30  1  0  0  0  0
  8 31  1  0  0  0  0
  9 13  1  0  0  0  0
  9 32  1  6  0  0  0
 10 11  1  0  0  0  0
 10 33  1  6  0  0  0
 11 34  1  0  0  0  0
 11 35  1  0  0  0  0
 12 36  1  0  0  0  0
 13 37  1  0  0  0  0
 18 23  2  0  0  0  0
 19 23  2  0  0  0  0
 20 38  1  0  0  0  0
 21 39  1  0  0  0  0
 22 23  1  0  0  0  0
 22 40  1  0  0  0  0
M  END
$$$$
DrugBank_2687
 OpenBabel01151909533D

 46 46  0  0  1  0  0  0  0  0999 V2000
    2.8799    7.5990  -15.8540 C   0  0  0  0  0  0  0  0  0  0  0  0
    0.1913    8.5119  -13.2610 C   0  0  0  0  0  0  0  0  0  0  0  0
    5.5287    6.5118  -14.5145 C   0  0  0  0  0  0  0  0  0  0  0  0
   -3.5642   11.0485  -10.2592 C   0  0  0  0  0  0  0  0  0  0  0  0
    1.5249    7.4786  -15.1196 C   0  0  1  0  0  0  0  0  0  0  0  0
    2.1212    6.1818  -14.5043 C   0  0  2  0  0  0  0  0  0  0  0  0
    5.2440    4.5860  -19.3043 C   0  0  0  0  0  0  0  0  0  0  0  0
    0.1415    9.7470  -12.3772 C   0  0  0  0  0  0  0  0  0  0  0  0
   -1.0293    9.7501  -11.3932 C   0  0  0  0  0  0  0  0  0  0  0  0
   -1.0407   11.0094  -10.5124 C   0  0  0  0  0  0  0  0  0  0  0  0
    5.1004    5.6137  -16.8021 C   0  0  0  0  0  0  0  0  0  0  0  0
    4.5448    5.7468  -15.3870 C   0  0  2  0  0  0  0  0  0  0  0  0
   -2.2274   11.1068   -9.5409 C   0  0  2  0  0  0  0  0  0  0  0  0
    3.2596    6.3811  -15.3945 N   0  0  0  0  0  0  0  0  0  0  0  0
   -2.2115   10.0567   -8.5231 N   0  0  0  0  0  0  0  0  0  0  0  0
    1.2674    8.5476  -14.1390 N   0  0  0  0  0  0  0  0  0  0  0  0
    3.4302    8.4281  -16.5418 O   0  0  0  0  0  0  0  0  0  0  0  0
   -0.6388    7.6081  -13.2101 O   0  0  0  0  0  0  0  0  0  0  0  0
    5.5167    7.7339  -14.4087 O   0  0  0  0  0  0  0  0  0  0  0  0
   -4.4301   10.2017  -10.0803 O   0  0  0  0  0  0  0  0  0  0  0  0
    2.8916    4.6954  -17.9984 O   0  0  0  0  0  0  0  0  0  0  0  0
    6.4219    5.7386  -13.8516 O   0  0  0  0  0  0  0  0  0  0  0  0
   -3.7087   12.0667  -11.1484 O   0  0  0  0  0  0  0  0  0  0  0  0
    1.1686    4.6976  -14.9720 S   0  0  0  0  0  0  0  0  0  0  0  0
    4.2928    4.2554  -17.7108 S   0  0  1  0  0  0  0  0  0  0  0  0
    0.6845    7.3621  -15.8128 H   0  0  0  0  0  0  0  0  0  0  0  0
    2.4001    6.2337  -13.4466 H   0  0  0  0  0  0  0  0  0  0  0  0
    4.9328    3.8669  -20.0652 H   0  0  0  0  0  0  0  0  0  0  0  0
    6.3131    4.4799  -19.1087 H   0  0  0  0  0  0  0  0  0  0  0  0
    5.0281    5.6015  -19.6429 H   0  0  0  0  0  0  0  0  0  0  0  0
    1.0912    9.8476  -11.8387 H   0  0  0  0  0  0  0  0  0  0  0  0
    0.0463   10.6126  -13.0442 H   0  0  0  0  0  0  0  0  0  0  0  0
   -1.9576    9.7068  -11.9744 H   0  0  0  0  0  0  0  0  0  0  0  0
   -0.9968    8.8484  -10.7713 H   0  0  0  0  0  0  0  0  0  0  0  0
   -0.1085   11.0570   -9.9371 H   0  0  0  0  0  0  0  0  0  0  0  0
   -1.0422   11.8941  -11.1627 H   0  0  0  0  0  0  0  0  0  0  0  0
    6.1764    5.4083  -16.7931 H   0  0  0  0  0  0  0  0  0  0  0  0
    4.9353    6.5260  -17.3847 H   0  0  0  0  0  0  0  0  0  0  0  0
    4.3994    4.7656  -14.9206 H   0  0  0  0  0  0  0  0  0  0  0  0
   -2.1835   12.0648   -9.0092 H   0  0  0  0  0  0  0  0  0  0  0  0
   -3.0745    9.8136   -8.0895 H   0  0  0  0  0  0  0  0  0  0  0  0
   -1.3288    9.7724   -8.1596 H   0  0  0  0  0  0  0  0  0  0  0  0
    1.8951    9.3470  -14.0972 H   0  0  0  0  0  0  0  0  0  0  0  0
    6.3346    4.7760  -14.0147 H   0  0  0  0  0  0  0  0  0  0  0  0
   -2.9486   12.6840  -11.2056 H   0  0  0  0  0  0  0  0  0  0  0  0
    1.3495    4.8342  -16.2916 H   0  0  0  0  0  0  0  0  0  0  0  0
  1  5  1  0  0  0  0
  1 14  1  0  0  0  0
  1 17  2  0  0  0  0
  2  8  1  0  0  0  0
  2 16  1  0  0  0  0
  2 18  2  0  0  0  0
  3 12  1  0  0  0  0
  3 19  2  0  0  0  0
  3 22  1  0  0  0  0
  4 13  1  0  0  0  0
  4 20  2  0  0  0  0
  4 23  1  0  0  0  0
  5  6  1  1  0  0  0
  5 16  1  0  0  0  0
  5 26  1  0  0  0  0
  6 14  1  0  0  0  0
  6 24  1  0  0  0  0
  6 27  1  1  0  0  0
  7 25  1  0  0  0  0
  7 28  1  0  0  0  0
  7 29  1  0  0  0  0
  7 30  1  0  0  0  0
  8  9  1  0  0  0  0
  8 31  1  0  0  0  0
  8 32  1  0  0  0  0
  9 10  1  0  0  0  0
  9 33  1  0  0  0  0
  9 34  1  0  0  0  0
 10 13  1  0  0  0  0
 10 35  1  0  0  0  0
 10 36  1  0  0  0  0
 11 12  1  0  0  0  0
 11 25  1  0  0  0  0
 11 37  1  0  0  0  0
 11 38  1  0  0  0  0
 12 14  1  0  0  0  0
 12 39  1  1  0  0  0
 13 15  1  0  0  0  0
 13 40  1  1  0  0  0
 15 41  1  0  0  0  0
 15 42  1  0  0  0  0
 16 43  1  0  0  0  0
 22 44  1  0  0  0  0
 23 45  1  0  0  0  0
 24 46  1  0  0  0  0
 25 21  2  6  0  0  0
M  END
$$$$
DrugBank_5285
 OpenBabel01151909533D

 23 23  0  0  0  0  0  0  0  0999 V2000
    1.8851   -1.0363   -0.1124 C   0  0  0  0  0  0  0  0  0  0  0  0
    2.8783   -1.6520    2.0022 C   0  0  0  0  0  0  0  0  0  0  0  0
    0.8066   -0.4630    0.5610 C   0  0  0  0  0  0  0  0  0  0  0  0
    1.7997   -1.0786    2.6757 C   0  0  0  0  0  0  0  0  0  0  0  0
    2.9210   -1.6309    0.6081 C   0  0  0  0  0  0  0  0  0  0  0  0
    0.7638   -0.4841    1.9551 C   0  0  0  0  0  0  0  0  0  0  0  0
    4.0740   -2.2446   -0.1116 C   0  0  0  0  0  0  0  0  0  0  0  0
    3.8686   -3.7270   -0.4470 C   0  0  0  0  0  0  0  0  0  0  0  0
    5.0036   -4.2970   -1.1222 N   0  0  0  0  0  0  0  0  0  0  0  0
   -0.1451    0.5644    4.1402 O   0  0  0  0  0  0  0  0  0  0  0  0
   -1.1895    1.2140    1.9155 O   0  0  0  0  0  0  0  0  0  0  0  0
   -1.6869   -0.8935    2.9859 F   0  0  0  0  0  0  0  0  0  0  0  0
   -0.5850    0.2354    2.7982 S   0  0  0  0  0  0  0  0  0  0  0  0
    1.9097   -1.0154   -1.1987 H   0  0  0  0  0  0  0  0  0  0  0  0
    3.6806   -2.1133    2.5719 H   0  0  0  0  0  0  0  0  0  0  0  0
    0.0045   -0.0029   -0.0100 H   0  0  0  0  0  0  0  0  0  0  0  0
    1.7763   -1.1011    3.7620 H   0  0  0  0  0  0  0  0  0  0  0  0
    4.9834   -2.1482    0.5052 H   0  0  0  0  0  0  0  0  0  0  0  0
    4.2941   -1.6881   -1.0389 H   0  0  0  0  0  0  0  0  0  0  0  0
    3.7196   -4.3102    0.4672 H   0  0  0  0  0  0  0  0  0  0  0  0
    2.9945   -3.8717   -1.0905 H   0  0  0  0  0  0  0  0  0  0  0  0
    4.8707   -5.1040   -1.7105 H   0  0  0  0  0  0  0  0  0  0  0  0
    5.9310   -4.0178   -0.8447 H   0  0  0  0  0  0  0  0  0  0  0  0
  1  3  2  0  0  0  0
  1  5  1  0  0  0  0
  1 14  1  0  0  0  0
  2  4  1  0  0  0  0
  2  5  2  0  0  0  0
  2 15  1  0  0  0  0
  3  6  1  0  0  0  0
  3 16  1  0  0  0  0
  4  6  2  0  0  0  0
  4 17  1  0  0  0  0
  5  7  1  0  0  0  0
  6 13  1  0  0  0  0
  7  8  1  0  0  0  0
  7 18  1  0  0  0  0
  7 19  1  0  0  0  0
  8  9  1  0  0  0  0
  8 20  1  0  0  0  0
  8 21  1  0  0  0  0
  9 22  1  0  0  0  0
  9 23  1  0  0  0  0
 10 13  2  0  0  0  0
 11 13  2  0  0  0  0
 12 13  1  0  0  0  0
M  END
$$$$
DrugBank_5313
 OpenBabel01151909533D

 30 31  0  0  0  0  0  0  0  0999 V2000
   -0.4966   -2.0341    0.4940 C   0  0  0  0  0  0  0  0  0  0  0  0
    3.8693   -4.3100   -0.6758 C   0  0  0  0  0  0  0  0  0  0  0  0
   -0.0479   -3.3542    0.5448 C   0  0  0  0  0  0  0  0  0  0  0  0
    3.4207   -2.9899   -0.7267 C   0  0  0  0  0  0  0  0  0  0  0  0
    0.3500   -1.0275    0.0392 C   0  0  0  0  0  0  0  0  0  0  0  0
    3.0228   -5.3167   -0.2210 C   0  0  0  0  0  0  0  0  0  0  0  0
    2.1168   -2.6602   -0.3222 C   0  0  0  0  0  0  0  0  0  0  0  0
    1.2560   -3.6839    0.1403 C   0  0  0  0  0  0  0  0  0  0  0  0
    1.6484   -1.3369   -0.3665 C   0  0  0  0  0  0  0  0  0  0  0  0
    1.7243   -5.0072    0.1848 C   0  0  0  0  0  0  0  0  0  0  0  0
    3.2996    0.4516    0.1184 C   0  0  0  0  0  0  0  0  0  0  0  0
    2.4944    0.0818   -2.2190 C   0  0  0  0  0  0  0  0  0  0  0  0
    2.4698   -0.2745   -0.8175 N   0  0  0  0  0  0  0  0  0  0  0  0
    1.5692   -7.5384    0.7387 O   0  0  0  0  0  0  0  0  0  0  0  0
    0.0737   -5.8998    1.9523 O   0  0  0  0  0  0  0  0  0  0  0  0
   -0.3936   -6.5464   -0.4202 O   0  0  0  0  0  0  0  0  0  0  0  0
    0.7357   -6.3492    0.7414 S   0  0  0  0  0  0  0  0  0  0  0  0
   -1.5074   -1.7923    0.8096 H   0  0  0  0  0  0  0  0  0  0  0  0
    4.8805   -4.5514   -0.9902 H   0  0  0  0  0  0  0  0  0  0  0  0
   -0.7455   -4.1043    0.9072 H   0  0  0  0  0  0  0  0  0  0  0  0
    4.1133   -2.2327   -1.0872 H   0  0  0  0  0  0  0  0  0  0  0  0
   -0.0128   -0.0030    0.0060 H   0  0  0  0  0  0  0  0  0  0  0  0
    3.3878   -6.3399   -0.1869 H   0  0  0  0  0  0  0  0  0  0  0  0
    3.8609    1.2310   -0.4034 H   0  0  0  0  0  0  0  0  0  0  0  0
    4.0069   -0.2275    0.6022 H   0  0  0  0  0  0  0  0  0  0  0  0
    2.6804    0.9195    0.8885 H   0  0  0  0  0  0  0  0  0  0  0  0
    3.1794    0.9180   -2.3821 H   0  0  0  0  0  0  0  0  0  0  0  0
    1.4952    0.3754   -2.5519 H   0  0  0  0  0  0  0  0  0  0  0  0
    2.8281   -0.7687   -2.8194 H   0  0  0  0  0  0  0  0  0  0  0  0
   -0.0532   -6.8525   -1.2936 H   0  0  0  0  0  0  0  0  0  0  0  0
  1  3  2  0  0  0  0
  1  5  1  0  0  0  0
  1 18  1  0  0  0  0
  2  4  2  0  0  0  0
  2  6  1  0  0  0  0
  2 19  1  0  0  0  0
  3  8  1  0  0  0  0
  3 20  1  0  0  0  0
  4  7  1  0  0  0  0
  4 21  1  0  0  0  0
  5  9  2  0  0  0  0
  5 22  1  0  0  0  0
  6 10  2  0  0  0  0
  6 23  1  0  0  0  0
  7  8  2  0  0  0  0
  7  9  1  0  0  0  0
  8 10  1  0  0  0  0
  9 13  1  0  0  0  0
 10 17  1  0  0  0  0
 11 13  1  0  0  0  0
 11 24  1  0  0  0  0
 11 25  1  0  0  0  0
 11 26  1  0  0  0  0
 12 13  1  0  0  0  0
 12 27  1  0  0  0  0
 12 28  1  0  0  0  0
 12 29  1  0  0  0  0
 14 17  2  0  0  0  0
 15 17  2  0  0  0  0
 16 17  1  0  0  0  0
 16 30  1  0  0  0  0
M  END
$$$$
DrugBank_2728
 OpenBabel01151909533D

  5  4  0  0  0  0  0  0  0  0999 V2000
   -0.1053    0.0140   -0.0443 C   0  0  0  0  0  0  0  0  0  0  0  0
    0.1792   -1.9017    0.1250 Br  0  0  0  0  0  0  0  0  0  0  0  0
   -0.1068    0.9104    1.6807 Br  0  0  0  0  0  0  0  0  0  0  0  0
    1.1377    0.8320   -1.2955 Br  0  0  0  0  0  0  0  0  0  0  0  0
   -1.1047    0.1453   -0.4659 H   0  0  0  0  0  0  0  0  0  0  0  0
  1  2  1  0  0  0  0
  1  3  1  0  0  0  0
  1  4  1  0  0  0  0
  1  5  1  0  0  0  0
M  END
$$$$
DrugBank_5319
 OpenBabel01151909533D

 41 45  0  0  0  0  0  0  0  0999 V2000
   -7.9849   -0.1598    0.0934 C   0  0  0  0  0  0  0  0  0  0  0  0
   -7.9604    0.2206   -1.2524 C   0  0  0  0  0  0  0  0  0  0  0  0
   -4.0151    0.6295   -6.2402 C   0  0  0  0  0  0  0  0  0  0  0  0
   -5.9991   -1.1567   -1.6817 C   0  0  0  0  0  0  0  0  0  0  0  0
   -2.2911   -0.7882   -2.1656 C   0  0  0  0  0  0  0  0  0  0  0  0
   -5.3407    0.8700   -6.5389 C   0  0  0  0  0  0  0  0  0  0  0  0
   -5.6202   -2.4145    1.5805 C   0  0  0  0  0  0  0  0  0  0  0  0
   -6.0085   -1.5493   -0.3326 C   0  0  0  0  0  0  0  0  0  0  0  0
   -6.9923   -1.0457    0.5137 C   0  0  0  0  0  0  0  0  0  0  0  0
   -6.9861   -0.2679   -2.1260 C   0  0  0  0  0  0  0  0  0  0  0  0
   -1.1496   -1.1385   -1.4198 C   0  0  0  0  0  0  0  0  0  0  0  0
   -3.7601    0.2126   -4.9496 C   0  0  0  0  0  0  0  0  0  0  0  0
   -1.8038   -0.4688   -3.4094 C   0  0  0  0  0  0  0  0  0  0  0  0
   -5.9706    0.3071   -4.4286 C   0  0  0  0  0  0  0  0  0  0  0  0
   -1.8312   -0.6836    1.0682 C   0  0  0  0  0  0  0  0  0  0  0  0
   -0.3436   -0.8468    1.0555 C   0  0  0  0  0  0  0  0  0  0  0  0
   -1.1843   -1.5677    0.0279 C   0  0  0  0  0  0  0  0  0  0  0  0
   -6.3479    0.7185   -5.6541 N   0  0  0  0  0  0  0  0  0  0  0  0
   -5.1655   -2.3979    0.3476 N   0  0  0  0  0  0  0  0  0  0  0  0
   -0.0222   -1.0501   -2.1306 N   0  0  0  0  0  0  0  0  0  0  0  0
   -4.7172    0.0404   -4.0145 N   0  0  0  0  0  0  0  0  0  0  0  0
   -6.7196   -1.6158    1.7307 N   0  0  0  0  0  0  0  0  0  0  0  0
   -0.4528   -0.6408   -3.3360 N   0  0  0  0  0  0  0  0  0  0  0  0
   -6.9948    0.1396   -3.4792 N   0  0  0  0  0  0  0  0  0  0  0  0
   -2.4110   -0.0429   -4.6020 N   0  0  0  0  0  0  0  0  0  0  0  0
   -8.7409    0.2168    0.7732 H   0  0  0  0  0  0  0  0  0  0  0  0
   -8.7197    0.9113   -1.6139 H   0  0  0  0  0  0  0  0  0  0  0  0
   -3.2359    0.7650   -6.9799 H   0  0  0  0  0  0  0  0  0  0  0  0
   -5.2411   -1.5365   -2.3603 H   0  0  0  0  0  0  0  0  0  0  0  0
   -3.3237   -0.7680   -1.8472 H   0  0  0  0  0  0  0  0  0  0  0  0
   -5.6392    1.2023   -7.5276 H   0  0  0  0  0  0  0  0  0  0  0  0
   -5.2043   -2.9775    2.4039 H   0  0  0  0  0  0  0  0  0  0  0  0
   -2.3839   -1.1609    1.8693 H   0  0  0  0  0  0  0  0  0  0  0  0
   -2.2363    0.2722    0.7569 H   0  0  0  0  0  0  0  0  0  0  0  0
    0.2528   -0.0003    0.7350 H   0  0  0  0  0  0  0  0  0  0  0  0
    0.1076   -1.4339    1.8472 H   0  0  0  0  0  0  0  0  0  0  0  0
   -1.3013   -2.6545    0.1865 H   0  0  0  0  0  0  0  0  0  0  0  0
   -7.2392   -1.4717    2.5863 H   0  0  0  0  0  0  0  0  0  0  0  0
    0.2324   -0.4976   -4.0672 H   0  0  0  0  0  0  0  0  0  0  0  0
   -7.9224    0.3525   -3.8308 H   0  0  0  0  0  0  0  0  0  0  0  0
   -1.7638    0.1145   -5.3657 H   0  0  0  0  0  0  0  0  0  0  0  0
  1  2  2  0  0  0  0
  1  9  1  0  0  0  0
  1 26  1  0  0  0  0
  2 10  1  0  0  0  0
  2 27  1  0  0  0  0
  3  6  2  0  0  0  0
  3 12  1  0  0  0  0
  3 28  1  0  0  0  0
  4  8  1  0  0  0  0
  4 10  2  0  0  0  0
  4 29  1  0  0  0  0
  5 11  1  0  0  0  0
  5 13  2  0  0  0  0
  5 30  1  0  0  0  0
  6 18  1  0  0  0  0
  6 31  1  0  0  0  0
  7 19  2  0  0  0  0
  7 22  1  0  0  0  0
  7 32  1  0  0  0  0
  8  9  2  0  0  0  0
  8 19  1  0  0  0  0
  9 22  1  0  0  0  0
 10 24  1  0  0  0  0
 11 17  1  0  0  0  0
 11 20  2  0  0  0  0
 12 21  2  0  0  0  0
 12 25  1  0  0  0  0
 13 23  1  0  0  0  0
 13 25  1  0  0  0  0
 14 18  2  0  0  0  0
 14 21  1  0  0  0  0
 14 24  1  0  0  0  0
 15 16  1  0  0  0  0
 15 17  1  0  0  0  0
 15 33  1  0  0  0  0
 15 34  1  0  0  0  0
 16 17  1  0  0  0  0
 16 35  1  0  0  0  0
 16 36  1  0  0  0  0
 17 37  1  0  0  0  0
 20 23  1  0  0  0  0
 22 38  1  0  0  0  0
 23 39  1  0  0  0  0
 24 40  1  0  0  0  0
 25 41  1  0  0  0  0
M  END
$$$$
DrugBank_5323
 OpenBabel01151909533D

 26 25  0  0  0  0  0  0  0  0999 V2000
    4.5786   -0.6782    8.7854 C   0  0  0  0  0  0  0  0  0  0  0  0
    1.0138    0.0110    0.4165 C   0  0  0  0  0  0  0  0  0  0  0  0
    4.8432   -0.4665    7.3137 C   0  0  0  0  0  0  0  0  0  0  0  0
    0.9543   -0.1269    1.9064 C   0  0  0  0  0  0  0  0  0  0  0  0
    2.3470   -0.1058    2.5337 C   0  0  0  0  0  0  0  0  0  0  0  0
    3.5595   -0.4772    6.5013 C   0  0  0  0  0  0  0  0  0  0  0  0
    2.2784   -0.2913    4.0411 C   0  0  0  0  0  0  0  0  0  0  0  0
    3.4756   -0.8214    9.2943 O   0  0  0  0  0  0  0  0  0  0  0  0
    4.6306   -1.4008    4.3031 O   0  0  0  0  0  0  0  0  0  0  0  0
    4.4213    1.0970    4.6009 O   0  0  0  0  0  0  0  0  0  0  0  0
    5.7337   -0.6929    9.5007 O   0  0  0  0  0  0  0  0  0  0  0  0
    3.8853   -0.2434    4.7687 S   0  0  0  0  0  0  0  0  0  0  0  0
    1.6132   -0.7924   -0.0244 H   0  0  0  0  0  0  0  0  0  0  0  0
    0.0031   -0.0488   -0.0040 H   0  0  0  0  0  0  0  0  0  0  0  0
    1.4427    0.9778    0.1329 H   0  0  0  0  0  0  0  0  0  0  0  0
    5.3529    0.4955    7.1884 H   0  0  0  0  0  0  0  0  0  0  0  0
    5.5097   -1.2630    6.9637 H   0  0  0  0  0  0  0  0  0  0  0  0
    0.3487    0.6901    2.3157 H   0  0  0  0  0  0  0  0  0  0  0  0
    0.4466   -1.0655    2.1574 H   0  0  0  0  0  0  0  0  0  0  0  0
    2.8461    0.8427    2.2981 H   0  0  0  0  0  0  0  0  0  0  0  0
    2.9668   -0.8949    2.0895 H   0  0  0  0  0  0  0  0  0  0  0  0
    3.0312   -1.4304    6.6021 H   0  0  0  0  0  0  0  0  0  0  0  0
    2.8836    0.3256    6.8117 H   0  0  0  0  0  0  0  0  0  0  0  0
    1.6921    0.5027    4.5132 H   0  0  0  0  0  0  0  0  0  0  0  0
    1.8392   -1.2581    4.3042 H   0  0  0  0  0  0  0  0  0  0  0  0
    6.5501   -0.5667    8.9711 H   0  0  0  0  0  0  0  0  0  0  0  0
  1  3  1  0  0  0  0
  1  8  2  0  0  0  0
  1 11  1  0  0  0  0
  2  4  1  0  0  0  0
  2 13  1  0  0  0  0
  2 14  1  0  0  0  0
  2 15  1  0  0  0  0
  3  6  1  0  0  0  0
  3 16  1  0  0  0  0
  3 17  1  0  0  0  0
  4  5  1  0  0  0  0
  4 18  1  0  0  0  0
  4 19  1  0  0  0  0
  5  7  1  0  0  0  0
  5 20  1  0  0  0  0
  5 21  1  0  0  0  0
  6 12  1  0  0  0  0
  6 22  1  0  0  0  0
  6 23  1  0  0  0  0
  7 12  1  0  0  0  0
  7 24  1  0  0  0  0
  7 25  1  0  0  0  0
  9 12  2  0  0  0  0
 10 12  2  0  0  0  0
 11 26  1  0  0  0  0
M  END
$$$$
DrugBank_5326
 OpenBabel01151909533D

 37 38  0  0  1  0  0  0  0  0999 V2000
    4.7582    8.0451    0.4950 C   0  0  0  0  0  0  0  0  0  0  0  0
    5.2278    6.9824   -0.2768 C   0  0  0  0  0  0  0  0  0  0  0  0
    3.9412    7.7981    1.5983 C   0  0  0  0  0  0  0  0  0  0  0  0
    4.8804    5.6727    0.0546 C   0  0  0  0  0  0  0  0  0  0  0  0
    3.5939    6.4885    1.9298 C   0  0  0  0  0  0  0  0  0  0  0  0
    4.0635    5.4258    1.1579 C   0  0  0  0  0  0  0  0  0  0  0  0
   -2.2956    5.1142    1.4582 C   0  0  0  0  0  0  0  0  0  0  0  0
   -4.5282    5.8457    1.6762 C   0  0  0  0  0  0  0  0  0  0  0  0
    2.3058    2.0253    0.8417 C   0  0  0  0  0  0  0  0  0  0  0  0
    0.0051    4.2783    0.8350 C   0  0  0  0  0  0  0  0  0  0  0  0
    2.7805    0.0489   -0.6029 C   0  0  0  0  0  0  0  0  0  0  0  0
    3.6870    4.0091    1.5169 C   0  0  0  0  0  0  0  0  0  0  0  0
    2.3956    3.5471    0.8321 C   0  0  2  0  0  0  0  0  0  0  0  0
   -2.9385    5.0673    0.3108 N   0  0  0  0  0  0  0  0  0  0  0  0
   -4.2477    5.4973    0.4385 N   0  0  0  0  0  0  0  0  0  0  0  0
   -0.9532    4.7614    1.7303 N   0  0  0  0  0  0  0  0  0  0  0  0
    2.7938    1.4686   -0.3324 N   0  0  0  0  0  0  0  0  0  0  0  0
    1.2183    4.0479    1.4957 N   0  0  0  0  0  0  0  0  0  0  0  0
    1.8143    1.3899    1.7720 O   0  0  0  0  0  0  0  0  0  0  0  0
   -0.1526    4.0717   -0.3659 O   0  0  0  0  0  0  0  0  0  0  0  0
   -3.2277    5.6805    2.7820 S   0  0  0  0  0  0  0  0  0  0  0  0
   -6.1071    6.4286    2.1374 S   0  0  0  0  0  0  0  0  0  0  0  0
    5.0299    9.0646    0.2376 H   0  0  0  0  0  0  0  0  0  0  0  0
    5.8648    7.1743   -1.1353 H   0  0  0  0  0  0  0  0  0  0  0  0
    3.5763    8.6252    2.2001 H   0  0  0  0  0  0  0  0  0  0  0  0
    5.2508    4.8510   -0.5526 H   0  0  0  0  0  0  0  0  0  0  0  0
    2.9568    6.3057    2.7911 H   0  0  0  0  0  0  0  0  0  0  0  0
    3.7054   -0.4105   -0.2445 H   0  0  0  0  0  0  0  0  0  0  0  0
    2.6922   -0.1302   -1.6779 H   0  0  0  0  0  0  0  0  0  0  0  0
    1.9339   -0.4242   -0.0980 H   0  0  0  0  0  0  0  0  0  0  0  0
    4.5144    3.3319    1.2651 H   0  0  0  0  0  0  0  0  0  0  0  0
    3.5859    3.9464    2.6085 H   0  0  0  0  0  0  0  0  0  0  0  0
    2.3456    3.9030   -0.2037 H   0  0  0  0  0  0  0  0  0  0  0  0
   -0.6537    4.8754    2.6955 H   0  0  0  0  0  0  0  0  0  0  0  0
    3.1797    2.0902   -1.0369 H   0  0  0  0  0  0  0  0  0  0  0  0
    1.2711    4.2435    2.4922 H   0  0  0  0  0  0  0  0  0  0  0  0
   -5.8775    6.6358    3.4482 H   0  0  0  0  0  0  0  0  0  0  0  0
  1  2  2  0  0  0  0
  1  3  1  0  0  0  0
  1 23  1  0  0  0  0
  2  4  1  0  0  0  0
  2 24  1  0  0  0  0
  3  5  2  0  0  0  0
  3 25  1  0  0  0  0
  4  6  2  0  0  0  0
  4 26  1  0  0  0  0
  5  6  1  0  0  0  0
  5 27  1  0  0  0  0
  6 12  1  0  0  0  0
  7 14  2  0  0  0  0
  7 16  1  0  0  0  0
  7 21  1  0  0  0  0
  8 15  2  0  0  0  0
  8 21  1  0  0  0  0
  8 22  1  0  0  0  0
  9 13  1  0  0  0  0
  9 17  1  0  0  0  0
  9 19  2  0  0  0  0
 10 16  1  0  0  0  0
 10 18  1  0  0  0  0
 10 20  2  0  0  0  0
 11 17  1  0  0  0  0
 11 28  1  0  0  0  0
 11 29  1  0  0  0  0
 11 30  1  0  0  0  0
 12 13  1  0  0  0  0
 12 31  1  0  0  0  0
 12 32  1  0  0  0  0
 13 18  1  0  0  0  0
 13 33  1  6  0  0  0
 14 15  1  0  0  0  0
 16 34  1  0  0  0  0
 17 35  1  0  0  0  0
 18 36  1  0  0  0  0
 22 37  1  0  0  0  0
M  END
$$$$
DrugBank_5329
 OpenBabel01151909533D

 48 52  0  0  0  0  0  0  0  0999 V2000
   -0.0446   -5.4945    1.1576 C   0  0  0  0  0  0  0  0  0  0  0  0
    0.2777   -4.2572    1.7152 C   0  0  0  0  0  0  0  0  0  0  0  0
   -0.7239   -5.5555   -0.0592 C   0  0  0  0  0  0  0  0  0  0  0  0
    2.4458   -0.8785   -4.4303 C   0  0  0  0  0  0  0  0  0  0  0  0
   -3.7033   -0.8705    3.3606 C   0  0  0  0  0  0  0  0  0  0  0  0
    2.9445   -2.1746   -4.3615 C   0  0  0  0  0  0  0  0  0  0  0  0
   -4.9396   -0.6816    2.7531 C   0  0  0  0  0  0  0  0  0  0  0  0
   -0.0795   -3.0809    1.0561 C   0  0  0  0  0  0  0  0  0  0  0  0
   -1.0811   -4.3792   -0.7183 C   0  0  0  0  0  0  0  0  0  0  0  0
    1.6104   -0.4066   -3.4239 C   0  0  0  0  0  0  0  0  0  0  0  0
   -2.5420   -0.7939    2.5996 C   0  0  0  0  0  0  0  0  0  0  0  0
    2.5808   -2.9526   -3.2741 C   0  0  0  0  0  0  0  0  0  0  0  0
   -4.9605   -0.4208    1.3924 C   0  0  0  0  0  0  0  0  0  0  0  0
   -0.7589   -3.1419   -0.1607 C   0  0  0  0  0  0  0  0  0  0  0  0
    1.3062   -1.2638   -2.3786 C   0  0  0  0  0  0  0  0  0  0  0  0
   -2.6703   -0.5283    1.2458 C   0  0  0  0  0  0  0  0  0  0  0  0
    0.4337   -0.8146   -1.2975 C   0  0  0  0  0  0  0  0  0  0  0  0
   -1.4789   -0.4373    0.4036 C   0  0  0  0  0  0  0  0  0  0  0  0
    0.6285    0.2227   -0.4570 C   0  0  0  0  0  0  0  0  0  0  0  0
   -0.4435    0.4203    0.5226 C   0  0  0  0  0  0  0  0  0  0  0  0
    1.8099    1.1530   -0.4924 C   0  0  0  0  0  0  0  0  0  0  0  0
   -0.3128    1.4730    1.5885 C   0  0  0  0  0  0  0  0  0  0  0  0
    2.0135    1.9516    0.7932 C   0  0  0  0  0  0  0  0  0  0  0  0
    0.6991    2.5668    1.2565 C   0  0  0  0  0  0  0  0  0  0  0  0
    1.7716   -2.5291   -2.2774 N   0  0  0  0  0  0  0  0  0  0  0  0
   -3.8538   -0.3390    0.6204 N   0  0  0  0  0  0  0  0  0  0  0  0
   -1.2264   -1.6015   -1.0239 P   0  0  0  0  0  0  0  0  0  0  0  0
    0.2335   -6.4104    1.6707 H   0  0  0  0  0  0  0  0  0  0  0  0
    0.8076   -4.2100    2.6620 H   0  0  0  0  0  0  0  0  0  0  0  0
   -0.9757   -6.5191   -0.4925 H   0  0  0  0  0  0  0  0  0  0  0  0
    2.7090   -0.2374   -5.2663 H   0  0  0  0  0  0  0  0  0  0  0  0
   -3.6454   -1.0758    4.4253 H   0  0  0  0  0  0  0  0  0  0  0  0
    3.5967   -2.5633   -5.1350 H   0  0  0  0  0  0  0  0  0  0  0  0
   -5.8575   -0.7375    3.3268 H   0  0  0  0  0  0  0  0  0  0  0  0
    0.1829   -2.1275    1.5086 H   0  0  0  0  0  0  0  0  0  0  0  0
   -1.6112   -4.4504   -1.6651 H   0  0  0  0  0  0  0  0  0  0  0  0
    1.2175    0.6040   -3.4709 H   0  0  0  0  0  0  0  0  0  0  0  0
   -1.5735   -0.9401    3.0670 H   0  0  0  0  0  0  0  0  0  0  0  0
    2.9416   -3.9709   -3.1741 H   0  0  0  0  0  0  0  0  0  0  0  0
   -5.8993   -0.2674    0.8705 H   0  0  0  0  0  0  0  0  0  0  0  0
    2.7321    0.5990   -0.7089 H   0  0  0  0  0  0  0  0  0  0  0  0
    1.6621    1.8603   -1.3203 H   0  0  0  0  0  0  0  0  0  0  0  0
   -1.2821    1.9431    1.7895 H   0  0  0  0  0  0  0  0  0  0  0  0
    0.0036    0.9792    2.5158 H   0  0  0  0  0  0  0  0  0  0  0  0
    2.4196    1.3011    1.5791 H   0  0  0  0  0  0  0  0  0  0  0  0
    2.7537    2.7418    0.6190 H   0  0  0  0  0  0  0  0  0  0  0  0
    0.2983    3.2235    0.4752 H   0  0  0  0  0  0  0  0  0  0  0  0
    0.8701    3.1874    2.1424 H   0  0  0  0  0  0  0  0  0  0  0  0
  1  2  2  0  0  0  0
  1  3  1  0  0  0  0
  1 28  1  0  0  0  0
  2  8  1  0  0  0  0
  2 29  1  0  0  0  0
  3  9  2  0  0  0  0
  3 30  1  0  0  0  0
  4  6  2  0  0  0  0
  4 10  1  0  0  0  0
  4 31  1  0  0  0  0
  5  7  2  0  0  0  0
  5 11  1  0  0  0  0
  5 32  1  0  0  0  0
  6 12  1  0  0  0  0
  6 33  1  0  0  0  0
  7 13  1  0  0  0  0
  7 34  1  0  0  0  0
  8 14  2  0  0  0  0
  8 35  1  0  0  0  0
  9 14  1  0  0  0  0
  9 36  1  0  0  0  0
 10 15  2  0  0  0  0
 10 37  1  0  0  0  0
 11 16  2  0  0  0  0
 11 38  1  0  0  0  0
 12 25  2  0  0  0  0
 12 39  1  0  0  0  0
 13 26  2  0  0  0  0
 13 40  1  0  0  0  0
 14 27  1  0  0  0  0
 15 17  1  0  0  0  0
 15 25  1  0  0  0  0
 16 18  1  0  0  0  0
 16 26  1  0  0  0  0
 17 19  2  0  0  0  0
 17 27  1  0  0  0  0
 18 20  2  0  0  0  0
 18 27  1  0  0  0  0
 19 20  1  0  0  0  0
 19 21  1  0  0  0  0
 20 22  1  0  0  0  0
 21 23  1  0  0  0  0
 21 41  1  0  0  0  0
 21 42  1  0  0  0  0
 22 24  1  0  0  0  0
 22 43  1  0  0  0  0
 22 44  1  0  0  0  0
 23 24  1  0  0  0  0
 23 45  1  0  0  0  0
 23 46  1  0  0  0  0
 24 47  1  0  0  0  0
 24 48  1  0  0  0  0
M  END
$$$$
