@<TRIPOS>MOLECULE
*****
   15    15     0     0     0
SMALL
USER_CHARGES

@<TRIPOS>ATOM
      1 C1         22.3700   21.6800   29.7700 C.ar      1 <0>        -0.1342
      2 C2         22.6000   22.9300   30.4200 C.ar      1 <0>        -0.1271
      3 C3         23.4000   21.0800   29.0100 C.ar      1 <0>        -0.1271
      4 C4         23.7600   23.5900   30.2500 C.ar      1 <0>        -0.1310
      5 C5         24.6200   21.7600   28.9500 C.ar      1 <0>        -0.1310
      6 C6         24.8300   22.9800   29.5800 C.ar      1 <0>        -0.0765
      7 C7         26.1000   23.6800   29.4000 C.3       1 <0>        -0.0541
      8 H1         21.3900   21.2200   29.8600 H         1 <0>         0.1314
      9 H2         21.8300   23.4200   31.0200 H         1 <0>         0.1286
     10 H3         23.1500   20.1800   28.4600 H         1 <0>         0.1286
     11 H4         23.9900   24.5700   30.6800 H         1 <0>         0.1303
     12 H5         25.4400   21.2700   28.4100 H         1 <0>         0.1303
     13 H6         25.9100   24.7300   29.1500 H         1 <0>         0.0440
     14 H7         26.6700   23.6400   30.3400 H         1 <0>         0.0440
     15 H8         26.7900   23.1900   28.7200 H         1 <0>         0.0440
@<TRIPOS>BOND
     1    1    8 1
     2    1    2 ar
     3    1    3 ar
     4    2    9 1
     5    2    4 ar
     6    3   10 1
     7    3    5 ar
     8    4   11 1
     9    4    6 ar
    10    5   12 1
    11    5    6 ar
    12    6    7 1
    13    7   13 1
    14    7   14 1
    15    7   15 1
