
  Mrv1760 09091817192D          

  9  9  0  0  0  0            999 V2000
    0.7145   -2.0625    0.0000 R#  0  0  0  0  0  0  0  0  0  0  0  0
    0.7145   -2.8875    0.0000 C   0  0  0  0  0  0  0  0  0  0  0  0
    1.4289   -3.3000    0.0000 N   0  0  0  0  0  0  0  0  0  0  0  0
    1.4289   -4.1250    0.0000 C   0  0  0  0  0  0  0  0  0  0  0  0
    0.7145   -4.5375    0.0000 N   0  0  0  0  0  0  0  0  0  0  0  0
    0.0000   -4.1250    0.0000 C   0  0  0  0  0  0  0  0  0  0  0  0
   -0.7145   -4.5375    0.0000 R#  0  0  0  0  0  0  0  0  0  0  0  0
    0.0000   -3.3000    0.0000 C   0  0  0  0  0  0  0  0  0  0  0  0
   -0.7145   -2.8875    0.0000 R#  0  0  0  0  0  0  0  0  0  0  0  0
  1  2  1  0  0  0  0
  2  3  2  0  0  0  0
  3  4  1  0  0  0  0
  4  5  2  0  0  0  0
  5  6  1  0  0  0  0
  6  7  1  0  0  0  0
  6  8  2  0  0  0  0
  2  8  1  0  0  0  0
  8  9  1  0  0  0  0
M  RGP  3   1   1   7   3   9   2
M  END
